api/pglib_opf_case2746wop_mp__api.m
%%%%%%%%%%%%%%%%%%%%%%%%%%%%%%%%%%%%%%%%%%%%%%%%%%%%%%%%%%%%%%%%%%%%%%%%%%%
%%%%                                                                  %%%%%
%%%%    IEEE PES Power Grid Library - Optimal Power Flow - v17.07     %%%%%
%%%%          (https://github.com/power-grid-lib/pglib-opf)           %%%%%
%%%%             Benchmark Group - Active Power Increase              %%%%%
%%%%                         27 - June - 2017                         %%%%%
%%%%                                                                  %%%%%
%%%%%%%%%%%%%%%%%%%%%%%%%%%%%%%%%%%%%%%%%%%%%%%%%%%%%%%%%%%%%%%%%%%%%%%%%%%
function mpc = pglib_opf_case2746wop_mp__api
mpc.version = '2';
mpc.baseMVA = 100.0;

%% area data
%	area	refbus
mpc.areas = [
	1	 18;
];

%% bus data
%	bus_i	type	Pd	Qd	Gs	Bs	area	Vm	Va	baseKV	zone	Vmax	Vmin
mpc.bus = [
	1	 1	 0.00	 0.00	 0.0	 0.0	 1	    1.10016	   -1.93711	 220.0	 1	    1.11000	    0.95000;
	2	 1	 0.00	 0.00	 0.0	 0.0	 1	    1.10442	    1.87884	 220.0	 1	    1.11000	    0.95000;
	3	 1	 0.00	 0.00	 0.0	 0.0	 1	    1.08521	   -8.40780	 220.0	 1	    1.11000	    0.95000;
	4	 1	 0.00	 0.00	 0.0	 0.0	 1	    1.10198	   -4.05720	 220.0	 1	    1.11000	    0.95000;
	5	 1	 0.00	 0.00	 0.0	 0.0	 1	    1.10199	   -4.06365	 220.0	 1	    1.11000	    0.95000;
	6	 1	 0.00	 0.00	 0.0	 0.0	 1	    1.09100	   -8.83977	 220.0	 1	    1.11000	    0.95000;
	7	 1	 0.00	 0.00	 0.0	 0.0	 1	    1.09100	   -8.82893	 220.0	 1	    1.11000	    0.95000;
	8	 1	 0.00	 0.00	 0.0	 -50.0	 1	    1.04117	   -7.45999	 400.0	 1	    1.05000	    0.95000;
	9	 1	 0.00	 0.00	 0.0	 0.0	 1	    1.04116	   -7.46318	 400.0	 1	    1.05000	    0.95000;
	10	 1	 0.00	 0.00	 0.0	 0.0	 1	    1.08954	  -10.10924	 220.0	 1	    1.11000	    0.95000;
	11	 1	 0.00	 0.00	 0.0	 0.0	 1	    1.08948	  -10.11819	 220.0	 1	    1.11000	    0.95000;
	12	 1	 0.00	 0.00	 0.0	 0.0	 1	    1.08950	  -10.10909	 220.0	 1	    1.11000	    0.95000;
	13	 1	 0.00	 0.00	 0.0	 -50.0	 1	    1.03616	   -6.47354	 400.0	 1	    1.05000	    0.95000;
	14	 1	 0.00	 0.00	 0.0	 0.0	 1	    1.03624	   -6.46817	 400.0	 1	    1.05000	    0.95000;
	15	 1	 0.00	 0.00	 0.0	 0.0	 1	    1.04722	   -7.35900	 400.0	 1	    1.05000	    0.95000;
	16	 1	 0.00	 0.00	 0.0	 0.0	 1	    1.04722	   -7.35900	 400.0	 1	    1.05000	    0.95000;
	17	 2	 2.43	 31.00	 0.0	 0.0	 1	    1.11000	   -3.35594	 220.0	 1	    1.11000	    0.95000;
	18	 2	 10.23	 40.00	 0.0	 0.0	 1	    1.11000	   -3.36155	 220.0	 1	    1.11000	    0.95000;
	19	 1	 0.00	 0.00	 0.0	 0.0	 1	    1.10331	   -3.31264	 220.0	 1	    1.11000	    0.95000;
	20	 1	 0.00	 0.00	 0.0	 0.0	 1	    1.10330	   -3.30313	 220.0	 1	    1.11000	    0.95000;
	21	 1	 0.00	 0.00	 0.0	 0.0	 1	    1.10287	  -11.72657	 220.0	 1	    1.11000	    0.95000;
	22	 1	 0.00	 0.00	 0.0	 0.0	 1	    1.10287	  -11.72657	 220.0	 1	    1.11000	    0.95000;
	23	 1	 0.00	 0.00	 0.0	 0.0	 1	    1.08972	  -10.00087	 220.0	 1	    1.11000	    0.95000;
	24	 1	 0.00	 0.00	 0.0	 0.0	 1	    1.10288	   -1.35819	 220.0	 1	    1.11000	    0.95000;
	25	 1	 0.00	 0.00	 0.0	 -50.0	 1	    1.04400	  -10.09821	 400.0	 1	    1.05000	    0.95000;
	26	 2	 30.12	 42.05	 0.0	 0.0	 1	    1.10911	   -1.78997	 220.0	 1	    1.11000	    0.95000;
	27	 2	 89.62	 122.06	 0.0	 0.0	 1	    1.11000	    2.13274	 220.0	 1	    1.11000	    0.95000;
	28	 3	 47.22	 80.00	 0.0	 0.0	 1	    1.04915	    0.00000	 400.0	 1	    1.05000	    0.95000;
	29	 2	 63.36	 90.00	 0.0	 0.0	 1	    1.04908	   -0.00926	 400.0	 1	    1.05000	    0.95000;
	30	 1	 0.00	 0.00	 0.0	 0.0	 1	    1.09492	  -10.91851	 220.0	 1	    1.11000	    0.95000;
	31	 1	 0.00	 0.00	 0.0	 0.0	 1	    1.04812	   -1.31489	 400.0	 1	    1.05000	    0.95000;
	32	 1	 0.00	 0.00	 0.0	 0.0	 1	    1.08792	  -10.32693	 220.0	 1	    1.11000	    0.95000;
	33	 1	 0.00	 0.00	 0.0	 0.0	 1	    1.10288	   -1.35737	 220.0	 1	    1.11000	    0.95000;
	34	 1	 0.00	 0.00	 0.0	 0.0	 1	    1.10379	   -6.09708	 220.0	 1	    1.11000	    0.95000;
	35	 1	 0.00	 0.00	 0.0	 0.0	 1	    1.10150	   -4.35151	 220.0	 2	    1.11000	    0.95000;
	36	 1	 0.00	 0.00	 0.0	 0.0	 1	    1.08567	   -6.42616	 220.0	 2	    1.11000	    0.95000;
	37	 1	 0.00	 0.00	 0.0	 0.0	 1	    1.08779	   -5.49594	 220.0	 2	    1.11000	    0.95000;
	38	 1	 0.00	 0.00	 0.0	 0.0	 1	    1.08778	   -5.49990	 220.0	 2	    1.11000	    0.95000;
	39	 1	 0.00	 0.00	 0.0	 0.0	 1	    1.09444	   -1.70441	 220.0	 2	    1.11000	    0.95000;
	40	 1	 0.00	 0.00	 0.0	 0.0	 1	    1.11000	   -5.90232	 220.0	 2	    1.11000	    0.95000;
	41	 1	 0.00	 0.00	 0.0	 0.0	 1	    1.10990	   -5.90326	 220.0	 2	    1.11000	    0.95000;
	42	 1	 0.00	 0.00	 0.0	 0.0	 1	    1.02339	   -5.76363	 400.0	 2	    1.05000	    0.95000;
	43	 2	 12.00	 0.00	 0.0	 0.0	 1	    1.11000	   -6.13470	 220.0	 2	    1.11000	    0.95000;
	44	 2	 24.00	 0.00	 0.0	 0.0	 1	    1.10988	   -6.12802	 220.0	 2	    1.11000	    0.95000;
	45	 2	 20.00	 0.00	 0.0	 0.0	 1	    1.03762	   -6.11155	 400.0	 2	    1.05000	    0.95000;
	46	 1	 0.00	 0.00	 0.0	 0.0	 1	    1.03762	   -6.11086	 400.0	 2	    1.05000	    0.95000;
	47	 1	 0.00	 0.00	 0.0	 0.0	 1	    1.10852	   -6.33393	 220.0	 2	    1.11000	    0.95000;
	48	 1	 0.00	 0.00	 0.0	 0.0	 1	    1.04697	   -9.26380	 400.0	 2	    1.05000	    0.95000;
	49	 1	 0.00	 0.00	 0.0	 0.0	 1	    1.04698	   -9.26926	 400.0	 2	    1.05000	    0.95000;
	50	 1	 0.00	 0.00	 0.0	 0.0	 1	    1.03532	   -5.87024	 400.0	 2	    1.05000	    0.95000;
	51	 1	 0.00	 0.00	 0.0	 0.0	 1	    1.09226	    0.23880	 220.0	 2	    1.11000	    0.95000;
	52	 1	 0.00	 0.00	 0.0	 0.0	 1	    1.09221	    0.25821	 220.0	 2	    1.11000	    0.95000;
	53	 1	 0.00	 0.00	 0.0	 0.0	 1	    1.03465	   -6.21133	 400.0	 2	    1.05000	    0.95000;
	54	 1	 0.00	 0.00	 0.0	 0.0	 1	    1.03466	   -6.21009	 400.0	 2	    1.05000	    0.95000;
	55	 2	 12.00	 0.00	 0.0	 0.0	 1	    1.08422	   -4.99733	 220.0	 2	    1.11000	    0.95000;
	56	 2	 12.00	 0.00	 0.0	 0.0	 1	    1.08416	   -5.00234	 220.0	 2	    1.11000	    0.95000;
	57	 2	 12.00	 0.00	 0.0	 0.0	 1	    1.03336	   -5.61569	 400.0	 2	    1.05000	    0.95000;
	58	 2	 12.00	 0.00	 0.0	 0.0	 1	    1.03336	   -5.62158	 400.0	 2	    1.05000	    0.95000;
	59	 2	 180.01	 62.00	 0.0	 0.0	 1	    1.10414	   -6.60731	 220.0	 2	    1.11000	    0.95000;
	60	 1	 0.00	 0.00	 0.0	 0.0	 1	    1.10416	   -6.59559	 220.0	 2	    1.11000	    0.95000;
	61	 1	 0.00	 0.00	 0.0	 0.0	 1	    1.10226	   -6.34970	 220.0	 2	    1.11000	    0.95000;
	62	 1	 0.00	 0.00	 0.0	 0.0	 1	    1.10564	   -6.57494	 220.0	 2	    1.11000	    0.95000;
	63	 1	 0.00	 0.00	 0.0	 0.0	 1	    1.10563	   -6.57616	 220.0	 2	    1.11000	    0.95000;
	64	 1	 0.00	 0.00	 0.0	 0.0	 1	    1.04365	   -6.88875	 400.0	 2	    1.05000	    0.95000;
	65	 1	 0.00	 0.00	 0.0	 0.0	 1	    1.04368	   -6.89940	 400.0	 2	    1.05000	    0.95000;
	66	 1	 0.00	 0.00	 0.0	 0.0	 1	    1.09132	   -5.56051	 220.0	 2	    1.11000	    0.95000;
	67	 1	 0.00	 0.00	 0.0	 0.0	 1	    1.09217	   -5.43492	 220.0	 2	    1.11000	    0.95000;
	68	 1	 0.00	 0.00	 0.0	 0.0	 1	    1.08822	    3.03853	 220.0	 2	    1.11000	    0.95000;
	69	 1	 0.00	 0.00	 0.0	 0.0	 1	    1.09957	   -3.24083	 220.0	 3	    1.11000	    0.95000;
	70	 1	 6.80	 0.00	 0.0	 0.0	 1	    1.10183	   -5.59499	 220.0	 3	    1.11000	    0.95000;
	71	 1	 11.95	 2.43	 0.0	 0.0	 1	    1.10165	   -5.60565	 220.0	 3	    1.11000	    0.95000;
	72	 1	 0.00	 0.00	 0.0	 0.0	 1	    1.10356	   -4.60386	 220.0	 3	    1.11000	    0.95000;
	73	 1	 0.00	 0.00	 0.0	 0.0	 1	    1.10356	   -4.58891	 220.0	 3	    1.11000	    0.95000;
	74	 1	 0.00	 0.00	 0.0	 0.0	 1	    1.10566	   -3.65379	 220.0	 3	    1.11000	    0.95000;
	75	 1	 0.00	 0.00	 0.0	 0.0	 1	    1.10565	   -3.65304	 220.0	 3	    1.11000	    0.95000;
	76	 1	 0.00	 0.00	 0.0	 0.0	 1	    1.10845	   -8.17747	 220.0	 3	    1.11000	    0.95000;
	77	 1	 0.00	 0.00	 0.0	 0.0	 1	    1.10846	   -8.18990	 220.0	 3	    1.11000	    0.95000;
	78	 2	 28.47	 70.00	 0.0	 0.0	 1	    1.10448	   -3.56971	 220.0	 3	    1.11000	    0.95000;
	79	 2	 9.49	 21.00	 0.0	 0.0	 1	    1.10467	   -2.69563	 220.0	 3	    1.11000	    0.95000;
	80	 1	 10.63	 1.38	 0.0	 0.0	 1	    1.10164	   -4.76598	 220.0	 3	    1.11000	    0.95000;
	81	 1	 0.00	 0.00	 0.0	 0.0	 1	    1.10165	   -4.76403	 220.0	 3	    1.11000	    0.95000;
	82	 2	 36.90	 108.00	 0.0	 0.0	 1	    1.03575	   -4.10930	 400.0	 3	    1.05000	    0.95000;
	83	 1	 0.00	 0.00	 0.0	 0.0	 1	    1.11000	   -5.47809	 220.0	 3	    1.11000	    0.95000;
	84	 1	 0.00	 0.00	 0.0	 0.0	 1	    1.10665	   -2.35180	 220.0	 3	    1.11000	    0.95000;
	85	 1	 0.00	 0.00	 0.0	 0.0	 1	    1.10662	   -2.34675	 220.0	 3	    1.11000	    0.95000;
	86	 1	 46.55	 10.56	 0.0	 0.0	 1	    1.09946	   -3.09455	 220.0	 3	    1.11000	    0.95000;
	87	 1	 0.00	 0.00	 0.0	 0.0	 1	    1.09944	   -3.09707	 220.0	 3	    1.11000	    0.95000;
	88	 1	 0.00	 0.00	 0.0	 0.0	 1	    1.10163	   -2.45580	 220.0	 3	    1.11000	    0.95000;
	89	 1	 0.00	 0.00	 0.0	 0.0	 1	    1.10166	   -2.46421	 220.0	 3	    1.11000	    0.95000;
	90	 1	 0.00	 0.00	 0.0	 0.0	 1	    1.10190	   -2.76953	 220.0	 3	    1.11000	    0.95000;
	91	 1	 0.00	 0.00	 0.0	 0.0	 1	    1.10190	   -2.76566	 220.0	 3	    1.11000	    0.95000;
	92	 1	 0.00	 0.00	 0.0	 0.0	 1	    1.05000	   -1.54878	 400.0	 3	    1.05000	    0.95000;
	93	 1	 0.00	 0.00	 0.0	 0.0	 1	    1.04999	   -1.54967	 400.0	 3	    1.05000	    0.95000;
	94	 1	 0.00	 0.00	 0.0	 0.0	 1	    1.10997	   -1.59006	 220.0	 3	    1.11000	    0.95000;
	95	 1	 0.00	 0.00	 0.0	 0.0	 1	    1.11000	   -1.58964	 220.0	 3	    1.11000	    0.95000;
	96	 1	 0.00	 0.00	 0.0	 0.0	 1	    1.10717	   -4.74128	 220.0	 3	    1.11000	    0.95000;
	97	 1	 0.00	 0.00	 0.0	 0.0	 1	    1.10719	   -4.74494	 220.0	 3	    1.11000	    0.95000;
	98	 1	 18.04	 6.32	 0.0	 0.0	 1	    1.10125	   -3.49944	 220.0	 3	    1.11000	    0.95000;
	99	 1	 0.00	 0.00	 0.0	 0.0	 1	    1.10124	   -3.50457	 220.0	 3	    1.11000	    0.95000;
	100	 1	 0.00	 0.00	 0.0	 0.0	 1	    1.10183	   -5.57888	 220.0	 3	    1.11000	    0.95000;
	101	 1	 0.00	 0.00	 0.0	 0.0	 1	    1.10186	   -5.57918	 220.0	 3	    1.11000	    0.95000;
	102	 1	 0.00	 0.00	 0.0	 0.0	 1	    1.11000	   -7.46044	 220.0	 3	    1.11000	    0.95000;
	103	 1	 0.00	 0.00	 0.0	 0.0	 1	    1.10995	   -7.45261	 220.0	 3	    1.11000	    0.95000;
	104	 2	 14.76	 40.00	 0.0	 0.0	 1	    1.10997	   -2.24981	 220.0	 3	    1.11000	    0.95000;
	105	 2	 0.00	 0.00	 0.0	 0.0	 1	    1.11000	   -2.26256	 220.0	 3	    1.11000	    0.95000;
	106	 2	 7.38	 18.00	 0.0	 0.0	 1	    1.10609	   -1.59684	 220.0	 3	    1.11000	    0.95000;
	107	 2	 8.43	 15.00	 0.0	 0.0	 1	    1.10601	   -1.60323	 220.0	 3	    1.11000	    0.95000;
	108	 1	 55.59	 17.14	 0.0	 0.0	 1	    1.09903	   -4.07671	 220.0	 3	    1.11000	    0.95000;
	109	 1	 59.51	 10.90	 0.0	 0.0	 1	    1.09906	   -4.08190	 220.0	 3	    1.11000	    0.95000;
	110	 1	 0.00	 0.00	 0.0	 0.0	 1	    1.10536	   -4.31885	 220.0	 3	    1.11000	    0.95000;
	111	 1	 0.00	 0.00	 0.0	 0.0	 1	    1.09869	   -4.93211	 220.0	 3	    1.11000	    0.95000;
	112	 1	 0.00	 0.00	 0.0	 0.0	 1	    1.09871	   -4.93127	 220.0	 3	    1.11000	    0.95000;
	113	 1	 0.00	 0.00	 0.0	 0.0	 1	    1.10231	   -4.62686	 220.0	 3	    1.11000	    0.95000;
	114	 1	 0.00	 0.00	 0.0	 0.0	 1	    1.10232	   -4.61908	 220.0	 3	    1.11000	    0.95000;
	115	 1	 0.00	 0.00	 0.0	 0.0	 1	    1.03742	   -3.49446	 400.0	 3	    1.05000	    0.95000;
	116	 2	 0.00	 0.00	 0.0	 0.0	 1	    1.10423	   -3.19465	 220.0	 3	    1.11000	    0.95000;
	117	 2	 8.43	 15.00	 0.0	 0.0	 1	    1.10422	   -3.19480	 220.0	 3	    1.11000	    0.95000;
	118	 2	 5.80	 10.00	 0.0	 0.0	 1	    1.10495	   -3.88137	 220.0	 3	    1.11000	    0.95000;
	119	 1	 0.00	 0.00	 0.0	 0.0	 1	    1.10504	   -3.88699	 220.0	 3	    1.11000	    0.95000;
	120	 1	 0.00	 0.00	 0.0	 0.0	 1	    1.04430	   -5.89791	 400.0	 3	    1.05000	    0.95000;
	121	 1	 0.00	 0.00	 0.0	 0.0	 1	    1.04432	   -5.89282	 400.0	 3	    1.05000	    0.95000;
	122	 1	 0.00	 0.00	 0.0	 0.0	 1	    1.04303	   -3.37100	 400.0	 3	    1.05000	    0.95000;
	123	 1	 0.00	 0.00	 0.0	 0.0	 1	    1.04307	   -3.36944	 400.0	 3	    1.05000	    0.95000;
	124	 1	 0.00	 0.00	 0.0	 0.0	 1	    1.10471	   -4.34062	 220.0	 3	    1.11000	    0.95000;
	125	 2	 20.26	 21.47	 0.0	 0.0	 1	    1.10562	   -3.78344	 220.0	 3	    1.11000	    0.95000;
	126	 2	 32.34	 33.60	 0.0	 0.0	 1	    1.10558	   -3.79527	 220.0	 3	    1.11000	    0.95000;
	127	 2	 29.52	 66.00	 0.0	 0.0	 1	    1.03402	   -3.13338	 400.0	 3	    1.05000	    0.95000;
	128	 1	 0.00	 0.00	 0.0	 0.0	 1	    1.03405	   -3.13702	 400.0	 3	    1.05000	    0.95000;
	129	 1	 0.00	 0.00	 0.0	 0.0	 1	    1.09900	   -3.14651	 220.0	 3	    1.11000	    0.95000;
	130	 1	 0.00	 0.00	 0.0	 0.0	 1	    1.09900	   -3.14058	 220.0	 3	    1.11000	    0.95000;
	131	 1	 0.00	 0.00	 0.0	 0.0	 1	    1.10080	   -2.87762	 220.0	 3	    1.11000	    0.95000;
	132	 2	 272.00	 -62.00	 0.0	 0.0	 1	    1.10978	   -8.99273	 220.0	 3	    1.11000	    0.95000;
	133	 2	 266.50	 -24.80	 0.0	 0.0	 1	    1.10775	   -8.97840	 220.0	 3	    1.11000	    0.95000;
	134	 2	 15.74	 12.88	 0.0	 0.0	 1	    1.10898	   -6.66985	 220.0	 4	    1.11000	    0.95000;
	135	 2	 8.45	 6.53	 0.0	 0.0	 1	    1.10893	   -6.67782	 220.0	 4	    1.11000	    0.95000;
	136	 1	 0.00	 0.00	 0.0	 0.0	 1	    1.09819	   -6.60507	 220.0	 4	    1.11000	    0.95000;
	137	 1	 0.00	 0.00	 0.0	 0.0	 1	    1.10333	   -5.10725	 220.0	 4	    1.11000	    0.95000;
	138	 1	 0.00	 0.00	 0.0	 0.0	 1	    1.04998	   -5.82857	 400.0	 4	    1.05000	    0.95000;
	139	 1	 0.00	 0.00	 0.0	 0.0	 1	    1.05000	   -5.83025	 400.0	 4	    1.05000	    0.95000;
	140	 1	 0.00	 0.00	 0.0	 0.0	 1	    1.10626	  -11.63465	 220.0	 4	    1.11000	    0.95000;
	141	 1	 0.00	 0.00	 0.0	 0.0	 1	    1.09015	  -12.88904	 220.0	 4	    1.11000	    0.95000;
	142	 1	 0.00	 0.00	 0.0	 0.0	 1	    1.09015	  -12.88904	 220.0	 4	    1.11000	    0.95000;
	143	 1	 0.00	 0.00	 0.0	 0.0	 1	    1.08909	  -11.83931	 220.0	 4	    1.11000	    0.95000;
	144	 1	 0.00	 0.00	 0.0	 0.0	 1	    1.10062	   -6.28918	 220.0	 4	    1.11000	    0.95000;
	145	 1	 0.00	 0.00	 0.0	 0.0	 1	    1.10062	   -6.28918	 220.0	 4	    1.11000	    0.95000;
	146	 2	 58.26	 6.96	 0.0	 0.0	 1	    1.10785	   -8.50253	 220.0	 4	    1.11000	    0.95000;
	147	 2	 10.62	 8.40	 0.0	 0.0	 1	    1.10787	   -8.50081	 220.0	 4	    1.11000	    0.95000;
	148	 2	 12.12	 6.86	 0.0	 0.0	 1	    1.08654	  -12.19473	 220.0	 4	    1.11000	    0.95000;
	149	 1	 4.66	 1.35	 0.0	 0.0	 1	    1.08632	  -12.20785	 220.0	 4	    1.11000	    0.95000;
	150	 2	 13.32	 6.83	 0.0	 0.0	 1	    0.99231	  -14.63189	 400.0	 4	    1.05000	    0.95000;
	151	 2	 13.07	 10.04	 0.0	 0.0	 1	    0.99228	  -14.63820	 400.0	 4	    1.05000	    0.95000;
	152	 1	 0.00	 0.00	 0.0	 0.0	 1	    1.09509	  -11.91373	 220.0	 4	    1.11000	    0.95000;
	153	 1	 0.00	 0.00	 0.0	 0.0	 1	    1.09572	  -10.47464	 220.0	 4	    1.11000	    0.95000;
	154	 1	 0.00	 0.00	 0.0	 0.0	 1	    1.09575	  -10.46931	 220.0	 4	    1.11000	    0.95000;
	155	 2	 35.42	 44.98	 0.0	 0.0	 1	    1.11000	   -1.78583	 220.0	 4	    1.11000	    0.95000;
	156	 2	 35.67	 45.07	 0.0	 0.0	 1	    1.11000	   -4.96963	 220.0	 4	    1.11000	    0.95000;
	157	 1	 0.00	 0.00	 0.0	 0.0	 1	    1.11000	   -1.78583	 220.0	 4	    1.11000	    0.95000;
	158	 1	 0.00	 0.00	 0.0	 0.0	 1	    1.03736	   -3.71199	 400.0	 4	    1.05000	    0.95000;
	159	 2	 9.16	 17.49	 0.0	 0.0	 1	    1.03727	   -3.71269	 400.0	 4	    1.05000	    0.95000;
	160	 1	 0.00	 0.00	 0.0	 0.0	 1	    1.08860	  -12.67344	 220.0	 4	    1.11000	    0.95000;
	161	 1	 0.00	 0.00	 0.0	 0.0	 1	    1.08860	  -12.67344	 220.0	 4	    1.11000	    0.95000;
	162	 1	 0.00	 0.00	 0.0	 0.0	 1	    1.05000	   -6.52722	 400.0	 4	    1.05000	    0.95000;
	163	 1	 0.00	 0.00	 0.0	 0.0	 1	    1.04968	   -5.84534	 400.0	 4	    1.05000	    0.95000;
	164	 1	 0.00	 0.00	 0.0	 0.0	 1	    1.04969	   -5.84536	 400.0	 4	    1.05000	    0.95000;
	165	 2	 5.79	 9.59	 0.0	 0.0	 1	    1.10840	   -8.55628	 220.0	 4	    1.11000	    0.95000;
	166	 2	 10.65	 4.89	 0.0	 0.0	 1	    1.10842	   -8.54094	 220.0	 4	    1.11000	    0.95000;
	167	 1	 15.14	 13.62	 0.0	 0.0	 1	    1.10837	   -8.55761	 220.0	 4	    1.11000	    0.95000;
	168	 1	 0.00	 0.00	 0.0	 0.0	 1	    1.10384	  -16.52560	 220.0	 4	    1.11000	    0.95000;
	169	 1	 0.00	 0.00	 0.0	 0.0	 1	    1.09334	  -12.95772	 220.0	 4	    1.11000	    0.95000;
	170	 1	 0.00	 0.00	 0.0	 0.0	 1	    1.11000	  -12.43387	 220.0	 4	    1.11000	    0.95000;
	171	 1	 0.00	 0.00	 0.0	 0.0	 1	    1.10993	  -12.43401	 220.0	 4	    1.11000	    0.95000;
	172	 1	 0.00	 0.00	 0.0	 0.0	 1	    0.95503	  -13.24313	 400.0	 4	    1.05000	    0.95000;
	173	 1	 0.00	 0.00	 0.0	 0.0	 1	    0.95503	  -13.24313	 400.0	 4	    1.05000	    0.95000;
	174	 1	 0.00	 0.00	 0.0	 0.0	 1	    1.08575	  -10.16641	 220.0	 4	    1.11000	    0.95000;
	175	 1	 0.00	 0.00	 0.0	 0.0	 1	    1.08574	  -10.15964	 220.0	 4	    1.11000	    0.95000;
	176	 1	 0.00	 0.00	 0.0	 0.0	 1	    1.10745	  -12.54512	 220.0	 4	    1.11000	    0.95000;
	177	 1	 0.00	 0.00	 0.0	 0.0	 1	    1.10146	   -6.36562	 220.0	 4	    1.11000	    0.95000;
	178	 1	 0.00	 0.00	 0.0	 0.0	 1	    1.10150	   -6.36863	 220.0	 4	    1.11000	    0.95000;
	179	 1	 0.00	 0.00	 0.0	 0.0	 1	    1.10494	   -6.64558	 220.0	 4	    1.11000	    0.95000;
	180	 1	 0.00	 0.00	 0.0	 0.0	 1	    1.10494	   -6.64558	 220.0	 4	    1.11000	    0.95000;
	181	 1	 0.00	 0.00	 0.0	 0.0	 1	    1.08374	  -10.97076	 220.0	 4	    1.11000	    0.95000;
	182	 1	 0.00	 0.00	 0.0	 0.0	 1	    1.08873	  -14.80588	 220.0	 5	    1.11000	    0.95000;
	183	 1	 0.00	 0.00	 0.0	 0.0	 1	    1.10804	  -19.76492	 220.0	 5	    1.11000	    0.95000;
	184	 1	 0.00	 0.00	 0.0	 0.0	 1	    1.02094	  -19.75967	 400.0	 5	    1.05000	    0.95000;
	185	 1	 0.00	 0.00	 0.0	 0.0	 1	    1.02091	  -19.75263	 400.0	 5	    1.05000	    0.95000;
	186	 1	 0.00	 0.00	 0.0	 0.0	 1	    1.04415	  -21.78451	 400.0	 5	    1.05000	    0.95000;
	187	 1	 0.00	 0.00	 0.0	 0.0	 1	    1.04417	  -21.78936	 400.0	 5	    1.05000	    0.95000;
	188	 1	 0.00	 0.00	 0.0	 0.0	 1	    1.10834	  -19.18892	 220.0	 5	    1.11000	    0.95000;
	189	 1	 0.00	 0.00	 0.0	 0.0	 1	    1.10835	  -19.19247	 220.0	 5	    1.11000	    0.95000;
	190	 1	 0.00	 0.00	 0.0	 0.0	 1	    1.09610	  -16.76607	 220.0	 5	    1.11000	    0.95000;
	191	 1	 0.00	 0.00	 0.0	 0.0	 1	    1.09613	  -16.76408	 220.0	 5	    1.11000	    0.95000;
	192	 1	 0.00	 0.00	 0.0	 0.0	 1	    1.03767	  -16.52973	 400.0	 5	    1.05000	    0.95000;
	193	 1	 0.00	 0.00	 0.0	 0.0	 1	    1.09397	  -14.44233	 220.0	 5	    1.11000	    0.95000;
	194	 1	 0.00	 0.00	 0.0	 0.0	 1	    1.09397	  -14.44134	 220.0	 5	    1.11000	    0.95000;
	195	 1	 0.00	 0.00	 0.0	 0.0	 1	    1.04776	  -20.76556	 400.0	 5	    1.05000	    0.95000;
	196	 1	 0.00	 0.00	 0.0	 0.0	 1	    1.04775	  -20.76285	 400.0	 5	    1.05000	    0.95000;
	197	 1	 0.00	 0.00	 0.0	 0.0	 1	    1.09987	  -13.90887	 220.0	 5	    1.11000	    0.95000;
	198	 1	 0.00	 0.00	 0.0	 0.0	 1	    1.09980	  -13.89786	 220.0	 5	    1.11000	    0.95000;
	199	 1	 0.00	 0.00	 0.0	 0.0	 1	    1.02617	  -21.46560	 400.0	 5	    1.05000	    0.95000;
	200	 1	 0.00	 0.00	 0.0	 0.0	 1	    1.02613	  -21.45515	 400.0	 5	    1.05000	    0.95000;
...
];

%% generator data
%	bus	Pg	Qg	Qmax	Qmin	Vg	mBase	status	Pmax	Pmin	Pc1	Pc2	Qc1min	Qc1max	Qc2min	Qc2max	ramp_agc	ramp_10	ramp_30	ramp_q	apf
mpc.gen = [
	17	 397.0	 22.84	 199.0	 -199.0	 1.11	 233.2	 1	 397	 70.0	 0.0	 0.0	 0.0	 0.0	 0.0	 0.0	 0.0	 0.0	 0.0	 0.0	 0.0; % NG
	18	 224.999	 -29.152	 120.0	 -113.0	 1.11	 233.2	 1	 225	 70.0	 0.0	 0.0	 0.0	 0.0	 0.0	 0.0	 0.0	 0.0	 0.0	 0.0	 0.0; % NG
	26	 0.0	 0.0	 289.0	 -289.0	 1.10911	 430.5	 0	 577	 145.0	 0.0	 0.0	 0.0	 0.0	 0.0	 0.0	 0.0	 0.0	 0.0	 0.0	 0.0; % COW
	26	 145.0	 97.844	 268.0	 -268.0	 1.10911	 421.9	 1	 536	 145.0	 0.0	 0.0	 0.0	 0.0	 0.0	 0.0	 0.0	 0.0	 0.0	 0.0	 0.0; % NG
	27	 530.0	 42.696	 265.0	 -265.0	 1.11	 421.9	 1	 530	 145.0	 0.0	 0.0	 0.0	 0.0	 0.0	 0.0	 0.0	 0.0	 0.0	 0.0	 0.0; % NG
	27	 346.0	 47.249	 220.0	 -173.0	 1.11	 430.5	 1	 346	 145.0	 0.0	 0.0	 0.0	 0.0	 0.0	 0.0	 0.0	 0.0	 0.0	 0.0	 0.0; % NG
	27	 145.0	 37.069	 220.0	 -200.0	 1.11	 430.5	 1	 400	 145.0	 0.0	 0.0	 0.0	 0.0	 0.0	 0.0	 0.0	 0.0	 0.0	 0.0	 0.0; % NG
	28	 0.0	 0.0	 452.0	 -452.0	 1.04915	 430.5	 0	 904	 145.0	 0.0	 0.0	 0.0	 0.0	 0.0	 0.0	 0.0	 0.0	 0.0	 0.0	 0.0; % NUC
	28	 572.0	 -19.84	 286.0	 -286.0	 1.04915	 430.5	 1	 572	 145.0	 0.0	 0.0	 0.0	 0.0	 0.0	 0.0	 0.0	 0.0	 0.0	 0.0	 0.0; % COW
	28	 505.0	 -15.542	 253.0	 -253.0	 1.04915	 430.5	 1	 505	 145.0	 0.0	 0.0	 0.0	 0.0	 0.0	 0.0	 0.0	 0.0	 0.0	 0.0	 0.0; % NG
	29	 145.0	 -52.896	 240.0	 -240.0	 1.04908	 430.5	 1	 479	 145.0	 0.0	 0.0	 0.0	 0.0	 0.0	 0.0	 0.0	 0.0	 0.0	 0.0	 0.0; % NG
	29	 145.0	 -9.811	 220.0	 -169.0	 1.04908	 430.5	 1	 337	 145.0	 0.0	 0.0	 0.0	 0.0	 0.0	 0.0	 0.0	 0.0	 0.0	 0.0	 0.0; % NG
	29	 145.0	 -7.786	 220.0	 -166.0	 1.04908	 430.5	 1	 331	 145.0	 0.0	 0.0	 0.0	 0.0	 0.0	 0.0	 0.0	 0.0	 0.0	 0.0	 0.0; % NG
	43	 67.5	 29.214	 161.0	 -161.0	 1.11	 246.2	 1	 322	 67.5	 0.0	 0.0	 0.0	 0.0	 0.0	 0.0	 0.0	 0.0	 0.0	 0.0	 0.0; % COW
	43	 0.0	 0.0	 147.0	 -147.0	 1.11	 275.3	 0	 293	 67.5	 0.0	 0.0	 0.0	 0.0	 0.0	 0.0	 0.0	 0.0	 0.0	 0.0	 0.0; % NG
	43	 0.0	 0.0	 120.0	 -87.0	 1.11	 275.3	 0	 174	 67.5	 0.0	 0.0	 0.0	 0.0	 0.0	 0.0	 0.0	 0.0	 0.0	 0.0	 0.0; % NG
	44	 67.5	 -14.732	 120.0	 -116.0	 1.10988	 255.0	 1	 232	 67.5	 0.0	 0.0	 0.0	 0.0	 0.0	 0.0	 0.0	 0.0	 0.0	 0.0	 0.0; % COW
	44	 67.5	 -44.664	 196.0	 -196.0	 1.10988	 255.0	 1	 391	 67.5	 0.0	 0.0	 0.0	 0.0	 0.0	 0.0	 0.0	 0.0	 0.0	 0.0	 0.0; % NG
	44	 0.0	 0.0	 120.0	 -80.0	 1.10988	 255.0	 0	 160	 67.5	 0.0	 0.0	 0.0	 0.0	 0.0	 0.0	 0.0	 0.0	 0.0	 0.0	 0.0; % NG
	45	 0.0	 0.0	 718.0	 -718.0	 1.03762	 610.3	 0	 1435	 175.0	 0.0	 0.0	 0.0	 0.0	 0.0	 0.0	 0.0	 0.0	 0.0	 0.0	 0.0; % COW
	45	 175.0	 -75.492	 350.0	 -213.0	 1.03762	 610.3	 1	 426	 175.0	 0.0	 0.0	 0.0	 0.0	 0.0	 0.0	 0.0	 0.0	 0.0	 0.0	 0.0; % NG
	55	 149.0	 -62.034	 120.0	 -75.0	 1.08422	 255.0	 1	 149	 65.0	 0.0	 0.0	 0.0	 0.0	 0.0	 0.0	 0.0	 0.0	 0.0	 0.0	 0.0; % COW
	56	 65.0	 -88.596	 120.0	 -109.0	 1.08416	 255.0	 1	 218	 65.0	 0.0	 0.0	 0.0	 0.0	 0.0	 0.0	 0.0	 0.0	 0.0	 0.0	 0.0; % NG
	56	 0.0	 0.0	 120.0	 -96.0	 1.08416	 255.0	 0	 191	 65.0	 0.0	 0.0	 0.0	 0.0	 0.0	 0.0	 0.0	 0.0	 0.0	 0.0	 0.0; % COW
	57	 168.0	 -84.0	 120.0	 -84.0	 1.03336	 255.0	 1	 168	 65.0	 0.0	 0.0	 0.0	 0.0	 0.0	 0.0	 0.0	 0.0	 0.0	 0.0	 0.0; % COW
	58	 0.0	 0.0	 232.0	 -232.0	 1.03336	 255.0	 0	 463	 65.0	 0.0	 0.0	 0.0	 0.0	 0.0	 0.0	 0.0	 0.0	 0.0	 0.0	 0.0; % NG
	58	 145.0	 -145.2	 145.2	 -145.2	 1.03336	 255.0	 1	 145	 65.0	 0.0	 0.0	 0.0	 0.0	 0.0	 0.0	 0.0	 0.0	 0.0	 0.0	 0.0; % NG
	58	 0.0	 0.0	 120.0	 -52.0	 1.03336	 255.0	 0	 104	 65.0	 0.0	 0.0	 0.0	 0.0	 0.0	 0.0	 0.0	 0.0	 0.0	 0.0	 0.0; % NG
	59	 31.5	 41.033	 72.0	 -72.0	 1.10414	 69.3	 1	 144	 31.5	 0.0	 0.0	 0.0	 0.0	 0.0	 0.0	 0.0	 0.0	 0.0	 0.0	 0.0; % NG
	78	 70.0	 24.937	 130.0	 -130.0	 1.10448	 248.3	 1	 260	 70.0	 0.0	 0.0	 0.0	 0.0	 0.0	 0.0	 0.0	 0.0	 0.0	 0.0	 0.0; % NG
	78	 70.0	 43.484	 174.0	 -174.0	 1.10448	 248.3	 1	 347	 70.0	 0.0	 0.0	 0.0	 0.0	 0.0	 0.0	 0.0	 0.0	 0.0	 0.0	 0.0; % NG
	79	 0.0	 0.0	 105.0	 -3.0	 1.10467	 243.8	 0	 6	 140.0	 0.0	 0.0	 0.0	 0.0	 0.0	 0.0	 0.0	 0.0	 0.0	 0.0	 0.0; % NG
	79	 0.0	 0.0	 105.0	 -37.0	 1.10467	 248.3	 0	 73	 70.0	 0.0	 0.0	 0.0	 0.0	 0.0	 0.0	 0.0	 0.0	 0.0	 0.0	 0.0; % NG
	79	 495.0	 -46.53	 248.0	 -248.0	 1.10467	 248.3	 1	 495	 70.0	 0.0	 0.0	 0.0	 0.0	 0.0	 0.0	 0.0	 0.0	 0.0	 0.0	 0.0; % NG
	82	 110.0	 -60.924	 192.0	 -156.0	 1.03575	 425.8	 1	 312	 110.0	 0.0	 0.0	 0.0	 0.0	 0.0	 0.0	 0.0	 0.0	 0.0	 0.0	 0.0; % NG
	82	 110.0	 -126.041	 233.0	 -233.0	 1.03575	 408.9	 1	 465	 110.0	 0.0	 0.0	 0.0	 0.0	 0.0	 0.0	 0.0	 0.0	 0.0	 0.0	 0.0; % NG
	104	 167.0	 41.442	 254.4	 -254.4	 1.10997	 251.8	 1	 167	 60.0	 0.0	 0.0	 0.0	 0.0	 0.0	 0.0	 0.0	 0.0	 0.0	 0.0	 0.0; % NG
	105	 0.0	 0.0	 113.0	 -48.0	 1.11	 251.8	 0	 32	 134.0	 0.0	 0.0	 0.0	 0.0	 0.0	 0.0	 0.0	 0.0	 0.0	 0.0	 0.0; % NG
	106	 208.0	 10.631	 104.0	 -104.0	 1.10609	 150.0	 1	 208	 39.5	 0.0	 0.0	 0.0	 0.0	 0.0	 0.0	 0.0	 0.0	 0.0	 0.0	 0.0; % COW
	107	 157.0	 -5.804	 90.0	 -79.0	 1.10601	 150.0	 1	 157	 39.5	 0.0	 0.0	 0.0	 0.0	 0.0	 0.0	 0.0	 0.0	 0.0	 0.0	 0.0; % COW
	116	 0.0	 0.0	 166.0	 -166.0	 1.10423	 150.0	 0	 331	 45.0	 0.0	 0.0	 0.0	 0.0	 0.0	 0.0	 0.0	 0.0	 0.0	 0.0	 0.0; % NG
	117	 179.0	 -12.142	 90.0	 -90.0	 1.10422	 150.0	 1	 179	 35.0	 0.0	 0.0	 0.0	 0.0	 0.0	 0.0	 0.0	 0.0	 0.0	 0.0	 0.0; % COW
	118	 40.0	 -39.52	 92.0	 -92.0	 1.10495	 129.3	 1	 184	 40.0	 0.0	 0.0	 0.0	 0.0	 0.0	 0.0	 0.0	 0.0	 0.0	 0.0	 0.0; % NG
	125	 80.0	 2.157	 188.4	 -188.4	 1.10562	 242.9	 1	 309	 80.0	 0.0	 0.0	 0.0	 0.0	 0.0	 0.0	 0.0	 0.0	 0.0	 0.0	 0.0; % NG
	126	 70.0	 42.033	 101.0	 -101.0	 1.10558	 240.2	 1	 202	 70.0	 0.0	 0.0	 0.0	 0.0	 0.0	 0.0	 0.0	 0.0	 0.0	 0.0	 0.0; % NG
	126	 0.0	 0.0	 105.0	 -105.0	 1.10558	 229.4	 0	 210	 80.0	 0.0	 0.0	 0.0	 0.0	 0.0	 0.0	 0.0	 0.0	 0.0	 0.0	 0.0; % COW
	127	 70.0	 -36.293	 80.0	 -80.0	 1.03402	 238.5	 1	 160	 70.0	 0.0	 0.0	 0.0	 0.0	 0.0	 0.0	 0.0	 0.0	 0.0	 0.0	 0.0; % NG
	127	 362.0	 -124.049	 181.0	 -181.0	 1.03402	 241.7	 1	 362	 80.0	 0.0	 0.0	 0.0	 0.0	 0.0	 0.0	 0.0	 0.0	 0.0	 0.0	 0.0; % NG
	132	 0.0	 0.0	 0.0	 0.0	 1.10978	 0.0	 0	 0	 0.0	 0.0	 0.0	 0.0	 0.0	 0.0	 0.0	 0.0	 0.0	 0.0	 0.0	 0.0; % SYNC
	132	 0.0	 0.0	 0.0	 0.0	 1.10978	 0.0	 0	 0	 0.0	 0.0	 0.0	 0.0	 0.0	 0.0	 0.0	 0.0	 0.0	 0.0	 0.0	 0.0; % SYNC
	133	 0.0	 0.0	 0.0	 0.0	 1.10775	 0.0	 0	 0	 0.0	 0.0	 0.0	 0.0	 0.0	 0.0	 0.0	 0.0	 0.0	 0.0	 0.0	 0.0; % SYNC
	133	 0.0	 0.0	 0.0	 0.0	 1.10775	 0.0	 0	 0	 0.0	 0.0	 0.0	 0.0	 0.0	 0.0	 0.0	 0.0	 0.0	 0.0	 0.0	 0.0; % SYNC
	134	 0.0	 0.0	 90.0	 -45.0	 1.10898	 150.0	 0	 89	 51.0	 0.0	 0.0	 0.0	 0.0	 0.0	 0.0	 0.0	 0.0	 0.0	 0.0	 0.0; % NG
	134	 144.0	 6.638	 90.001	 -72.0	 1.10898	 150.0	 1	 144	 50.0	 0.0	 0.0	 0.0	 0.0	 0.0	 0.0	 0.0	 0.0	 0.0	 0.0	 0.0; % NG
	135	 0.0	 0.0	 90.0	 -20.0	 1.10893	 150.0	 0	 39	 102.0	 0.0	 0.0	 0.0	 0.0	 0.0	 0.0	 0.0	 0.0	 0.0	 0.0	 0.0; % NG
	146	 15.0	 -20.805	 84.0	 -84.0	 1.10785	 51.4	 1	 168	 15.0	 0.0	 0.0	 0.0	 0.0	 0.0	 0.0	 0.0	 0.0	 0.0	 0.0	 0.0; % NG
	146	 15.0	 -12.76	 65.0	 -65.0	 1.10785	 51.4	 1	 129	 15.0	 0.0	 0.0	 0.0	 0.0	 0.0	 0.0	 0.0	 0.0	 0.0	 0.0	 0.0; % NG
	147	 0.0	 0.0	 90.0	 -3.0	 1.10787	 150.0	 0	 6	 90.0	 0.0	 0.0	 0.0	 0.0	 0.0	 0.0	 0.0	 0.0	 0.0	 0.0	 0.0; % NG
	148	 45.0	 42.99	 120.0	 -101.0	 1.08654	 252.4	 1	 202	 45.0	 0.0	 0.0	 0.0	 0.0	 0.0	 0.0	 0.0	 0.0	 0.0	 0.0	 0.0; % NG
	148	 0.0	 0.0	 120.0	 -26.0	 1.08654	 237.5	 0	 52	 135.0	 0.0	 0.0	 0.0	 0.0	 0.0	 0.0	 0.0	 0.0	 0.0	 0.0	 0.0; % NG
	148	 0.0	 0.0	 120.0	 -68.0	 1.08654	 237.5	 0	 135	 67.5	 0.0	 0.0	 0.0	 0.0	 0.0	 0.0	 0.0	 0.0	 0.0	 0.0	 0.0; % NG
	148	 45.0	 39.749	 120.0	 -116.0	 1.08654	 252.4	 1	 231	 45.0	 0.0	 0.0	 0.0	 0.0	 0.0	 0.0	 0.0	 0.0	 0.0	 0.0	 0.0; % NG
	150	 45.0	 -70.294	 146.4	 -146.4	 0.99231	 252.4	 1	 159	 45.0	 0.0	 0.0	 0.0	 0.0	 0.0	 0.0	 0.0	 0.0	 0.0	 0.0	 0.0; % NG
	151	 45.0	 -128.348	 273.6	 -273.6	 0.99228	 252.4	 1	 343	 45.0	 0.0	 0.0	 0.0	 0.0	 0.0	 0.0	 0.0	 0.0	 0.0	 0.0	 0.0; % NG
	151	 0.0	 0.0	 120.0	 -83.0	 0.99228	 252.4	 0	 166	 45.0	 0.0	 0.0	 0.0	 0.0	 0.0	 0.0	 0.0	 0.0	 0.0	 0.0	 0.0; % NG
	155	 47.0	 24.845	 133.0	 -133.0	 1.11	 263.9	 1	 266	 47.0	 0.0	 0.0	 0.0	 0.0	 0.0	 0.0	 0.0	 0.0	 0.0	 0.0	 0.0; % NG
	155	 486.0	 77.25	 243.0	 -243.0	 1.11	 263.9	 1	 486	 47.0	 0.0	 0.0	 0.0	 0.0	 0.0	 0.0	 0.0	 0.0	 0.0	 0.0	 0.0; % COW
	155	 0.0	 0.0	 120.0	 -4.0	 1.11	 237.5	 0	 8	 130.0	 0.0	 0.0	 0.0	 0.0	 0.0	 0.0	 0.0	 0.0	 0.0	 0.0	 0.0; % NG
	155	 280.0	 27.429	 140.0	 -140.0	 1.11	 287.3	 1	 280	 52.0	 0.0	 0.0	 0.0	 0.0	 0.0	 0.0	 0.0	 0.0	 0.0	 0.0	 0.0; % NG
	156	 0.0	 0.0	 120.0	 -30.0	 1.11	 237.5	 0	 59	 130.0	 0.0	 0.0	 0.0	 0.0	 0.0	 0.0	 0.0	 0.0	 0.0	 0.0	 0.0; % NG
	156	 65.0	 55.363	 120.0	 -74.0	 1.11	 237.5	 1	 147	 65.0	 0.0	 0.0	 0.0	 0.0	 0.0	 0.0	 0.0	 0.0	 0.0	 0.0	 0.0; % NG
	156	 60.0	 51.198	 120.0	 -96.0	 1.11	 238.4	 1	 191	 60.0	 0.0	 0.0	 0.0	 0.0	 0.0	 0.0	 0.0	 0.0	 0.0	 0.0	 0.0; % NG
	156	 143.0	 55.764	 120.0	 -72.0	 1.11	 238.4	 1	 143	 60.0	 0.0	 0.0	 0.0	 0.0	 0.0	 0.0	 0.0	 0.0	 0.0	 0.0	 0.0; % NG
	159	 60.0	 -199.997	 200.0	 -200.0	 1.03727	 238.4	 1	 399	 60.0	 0.0	 0.0	 0.0	 0.0	 0.0	 0.0	 0.0	 0.0	 0.0	 0.0	 0.0; % COW
	165	 75.0	 4.805	 120.0	 -83.0	 1.1084	 233.2	 1	 166	 75.0	 0.0	 0.0	 0.0	 0.0	 0.0	 0.0	 0.0	 0.0	 0.0	 0.0	 0.0; % NG
	165	 0.0	 0.0	 120.0	 -20.0	 1.1084	 233.2	 0	 40	 150.0	 0.0	 0.0	 0.0	 0.0	 0.0	 0.0	 0.0	 0.0	 0.0	 0.0	 0.0; % NG
	166	 540.0	 3.453	 270.0	 -270.0	 1.10842	 233.2	 1	 540	 75.0	 0.0	 0.0	 0.0	 0.0	 0.0	 0.0	 0.0	 0.0	 0.0	 0.0	 0.0; % COW
	165	 0.0	 0.0	 120.0	 -9.0	 1.1084	 233.2	 0	 18	 150.0	 0.0	 0.0	 0.0	 0.0	 0.0	 0.0	 0.0	 0.0	 0.0	 0.0	 0.0; % NG
	205	 0.0	 -1.813	 80.0	 -30.0	 1.03678	 196.1	 1	 0	 0.0	 0.0	 0.0	 0.0	 0.0	 0.0	 0.0	 0.0	 0.0	 0.0	 0.0	 0.0; % SYNC
	205	 0.0	 -1.813	 80.0	 -30.0	 1.03678	 196.1	 1	 0	 0.0	 0.0	 0.0	 0.0	 0.0	 0.0	 0.0	 0.0	 0.0	 0.0	 0.0	 0.0; % SYNC
	205	 0.0	 -1.813	 80.0	 -30.0	 1.03678	 196.1	 1	 0	 0.0	 0.0	 0.0	 0.0	 0.0	 0.0	 0.0	 0.0	 0.0	 0.0	 0.0	 0.0; % SYNC
	206	 0.0	 -8.165	 80.0	 -30.0	 1.03681	 196.1	 1	 0	 0.0	 0.0	 0.0	 0.0	 0.0	 0.0	 0.0	 0.0	 0.0	 0.0	 0.0	 0.0; % SYNC
	215	 18.54	 -2.94	 26.0	 -26.0	 1.11874	 58.5	 1	 52	 18.5395	 0.0	 0.0	 0.0	 0.0	 0.0	 0.0	 0.0	 0.0	 0.0	 0.0	 0.0; % NG
	215	 16.854	 -5.572	 36.0	 -36.0	 1.11874	 53.9	 1	 71	 16.854	 0.0	 0.0	 0.0	 0.0	 0.0	 0.0	 0.0	 0.0	 0.0	 0.0	 0.0; % NG
	215	 44.709	 -5.878	 37.0	 -37.0	 1.11874	 53.9	 1	 73	 16.854	 0.0	 0.0	 0.0	 0.0	 0.0	 0.0	 0.0	 0.0	 0.0	 0.0	 0.0; % NG
	215	 80.0	 -6.842	 40.0	 -40.0	 1.11874	 30.5	 1	 80	 7.753	 0.0	 0.0	 0.0	 0.0	 0.0	 0.0	 0.0	 0.0	 0.0	 0.0	 0.0; % COW
	229	 2.75	 3.998	 4.0	 -4.0	 1.11396	 7.3	 1	 8	 2.75	 0.0	 0.0	 0.0	 0.0	 0.0	 0.0	 0.0	 0.0	 0.0	 0.0	 0.0; % NG
	230	 13.35	 1.075	 8.0	 -8.0	 1.114	 10.0	 1	 15	 2.75	 0.0	 0.0	 0.0	 0.0	 0.0	 0.0	 0.0	 0.0	 0.0	 0.0	 0.0; % NG
	239	 1.5	 14.366	 25.2	 -25.2	 1.09673	 15.4	 1	 26	 1.5	 0.0	 0.0	 0.0	 0.0	 0.0	 0.0	 0.0	 0.0	 0.0	 0.0	 0.0; % COW
	246	 346.047	 134.092	 220.0	 -244.8	 1.08691	 430.5	 1	 431	 145.0	 0.0	 0.0	 0.0	 0.0	 0.0	 0.0	 0.0	 0.0	 0.0	 0.0	 0.0; % COW
	291	 1.0	 3.9	 12.0	 -12.0	 1.11666	 3.2	 1	 23	 1.0	 0.0	 0.0	 0.0	 0.0	 0.0	 0.0	 0.0	 0.0	 0.0	 0.0	 0.0; % PEL
	294	 1.0	 0.907	 25.0	 -25.0	 1.11191	 4.8	 1	 50	 1.0	 0.0	 0.0	 0.0	 0.0	 0.0	 0.0	 0.0	 0.0	 0.0	 0.0	 0.0; % PEL
	306	 27.0	 5.986	 14.4	 -14.4	 1.11871	 24.0	 1	 27	 4.5835	 0.0	 0.0	 0.0	 0.0	 0.0	 0.0	 0.0	 0.0	 0.0	 0.0	 0.0; % NG
	306	 8.148	 5.986	 14.4	 -14.4	 1.11871	 27.9	 1	 26	 8.148	 0.0	 0.0	 0.0	 0.0	 0.0	 0.0	 0.0	 0.0	 0.0	 0.0	 0.0; % NG
	306	 5.602	 25.351	 37.0	 -37.0	 1.11871	 31.0	 1	 74	 5.602	 0.0	 0.0	 0.0	 0.0	 0.0	 0.0	 0.0	 0.0	 0.0	 0.0	 0.0; % NG
	306	 32.0	 7.15	 16.0	 -16.0	 1.11871	 26.9	 1	 32	 4.5835	 0.0	 0.0	 0.0	 0.0	 0.0	 0.0	 0.0	 0.0	 0.0	 0.0	 0.0; % NG
	306	 63.0	 20.734	 32.0	 -32.0	 1.11871	 28.1	 1	 63	 4.5835	 0.0	 0.0	 0.0	 0.0	 0.0	 0.0	 0.0	 0.0	 0.0	 0.0	 0.0; % COW
	307	 18.25	 30.772	 76.0	 -76.0	 1.11361	 57.0	 1	 151	 18.25	 0.0	 0.0	 0.0	 0.0	 0.0	 0.0	 0.0	 0.0	 0.0	 0.0	 0.0; % NG
	307	 18.25	 3.588	 24.0	 -24.0	 1.11361	 57.0	 1	 48	 18.25	 0.0	 0.0	 0.0	 0.0	 0.0	 0.0	 0.0	 0.0	 0.0	 0.0	 0.0; % PEL
	308	 16.0	 16.45	 77.0	 -77.0	 1.11516	 36.7	 1	 153	 16.0	 0.0	 0.0	 0.0	 0.0	 0.0	 0.0	 0.0	 0.0	 0.0	 0.0	 0.0; % NG
	308	 20.0	 2.772	 31.0	 -31.0	 1.11516	 57.5	 1	 61	 20.0	 0.0	 0.0	 0.0	 0.0	 0.0	 0.0	 0.0	 0.0	 0.0	 0.0	 0.0; % NG
	310	 17.5	 19.327	 31.0	 -31.0	 1.11707	 53.9	 1	 61	 17.5	 0.0	 0.0	 0.0	 0.0	 0.0	 0.0	 0.0	 0.0	 0.0	 0.0	 0.0; % PEL
	310	 37.5	 32.299	 45.0	 -45.0	 1.11707	 103.2	 1	 89	 37.5	 0.0	 0.0	 0.0	 0.0	 0.0	 0.0	 0.0	 0.0	 0.0	 0.0	 0.0; % NG
	311	 28.357	 28.771	 104.0	 -104.0	 1.1174	 64.0	 1	 208	 22.5	 0.0	 0.0	 0.0	 0.0	 0.0	 0.0	 0.0	 0.0	 0.0	 0.0	 0.0; % NG
	319	 1.0	 14.388	 14.4	 -14.4	 1.11599	 4.1	 1	 22	 1.0	 0.0	 0.0	 0.0	 0.0	 0.0	 0.0	 0.0	 0.0	 0.0	 0.0	 0.0; % PEL
	345	 0.5	 2.951	 16.0	 -16.0	 1.10127	 1.9	 1	 31	 0.5	 0.0	 0.0	 0.0	 0.0	 0.0	 0.0	 0.0	 0.0	 0.0	 0.0	 0.0; % PEL
	362	 20.0	 19.236	 89.0	 -89.0	 1.1099	 47.8	 1	 178	 20.0	 0.0	 0.0	 0.0	 0.0	 0.0	 0.0	 0.0	 0.0	 0.0	 0.0	 0.0; % NG
	363	 20.0	 15.735	 28.0	 -28.0	 1.09811	 47.8	 1	 55	 20.0	 0.0	 0.0	 0.0	 0.0	 0.0	 0.0	 0.0	 0.0	 0.0	 0.0	 0.0; % NG
	364	 0.0	 0.0	 12.0	 0.0	 1.11548	 47.8	 0	 0	 0.0	 0.0	 0.0	 0.0	 0.0	 0.0	 0.0	 0.0	 0.0	 0.0	 0.0	 0.0; % SYNC
	364	 23.0	 23.538	 27.0	 -27.0	 1.11548	 71.0	 1	 54	 23.0	 0.0	 0.0	 0.0	 0.0	 0.0	 0.0	 0.0	 0.0	 0.0	 0.0	 0.0; % PEL
	365	 20.0	 21.324	 117.0	 -117.0	 1.09338	 47.8	 1	 233	 20.0	 0.0	 0.0	 0.0	 0.0	 0.0	 0.0	 0.0	 0.0	 0.0	 0.0	 0.0; % NG
	365	 20.0	 0.927	 24.0	 -24.0	 1.09338	 47.8	 1	 48	 20.0	 0.0	 0.0	 0.0	 0.0	 0.0	 0.0	 0.0	 0.0	 0.0	 0.0	 0.0; % NG
	368	 0.5	 3.067	 15.0	 -15.0	 1.10306	 1.9	 1	 29	 0.5	 0.0	 0.0	 0.0	 0.0	 0.0	 0.0	 0.0	 0.0	 0.0	 0.0	 0.0; % PEL
	382	 37.0	 2.46	 19.0	 -19.0	 1.12	 55.9	 1	 37	 7.5	 0.0	 0.0	 0.0	 0.0	 0.0	 0.0	 0.0	 0.0	 0.0	 0.0	 0.0; % NG
	382	 60.0	 69.236	 120.0	 -102.0	 1.12	 255.9	 1	 203	 60.0	 0.0	 0.0	 0.0	 0.0	 0.0	 0.0	 0.0	 0.0	 0.0	 0.0	 0.0; % COW
	383	 7.5	 7.251	 21.0	 -21.0	 1.12	 55.9	 1	 41	 7.5	 0.0	 0.0	 0.0	 0.0	 0.0	 0.0	 0.0	 0.0	 0.0	 0.0	 0.0; % NG
	386	 1.25	 5.918	 16.0	 -16.0	 1.10992	 4.8	 1	 31	 1.25	 0.0	 0.0	 0.0	 0.0	 0.0	 0.0	 0.0	 0.0	 0.0	 0.0	 0.0; % PEL
	395	 0.5	 9.143	 16.0	 -16.0	 1.10376	 1.9	 1	 31	 0.5	 0.0	 0.0	 0.0	 0.0	 0.0	 0.0	 0.0	 0.0	 0.0	 0.0	 0.0; % PEL
	421	 2.0	 19.289	 23.0	 -23.0	 1.10569	 7.7	 1	 45	 2.0	 0.0	 0.0	 0.0	 0.0	 0.0	 0.0	 0.0	 0.0	 0.0	 0.0	 0.0; % NG
	426	 1.5	 6.0	 6.0	 -6.0	 1.11487	 4.5	 1	 12	 1.5	 0.0	 0.0	 0.0	 0.0	 0.0	 0.0	 0.0	 0.0	 0.0	 0.0	 0.0; % PEL
	431	 2.5	 2.009	 12.0	 -12.0	 1.10908	 13.6	 1	 23	 2.5	 0.0	 0.0	 0.0	 0.0	 0.0	 0.0	 0.0	 0.0	 0.0	 0.0	 0.0; % NG
	440	 9.0	 8.772	 19.2	 -19.2	 1.07658	 3.6	 1	 9	 1.0	 0.0	 0.0	 0.0	 0.0	 0.0	 0.0	 0.0	 0.0	 0.0	 0.0	 0.0; % NG
	447	 28.0	 1.234	 20.0	 -14.0	 1.10663	 21.3	 1	 28	 1.75	 0.0	 0.0	 0.0	 0.0	 0.0	 0.0	 0.0	 0.0	 0.0	 0.0	 0.0; % NG
	447	 1.75	 3.029	 20.0	 -11.0	 1.10663	 21.3	 1	 21	 1.75	 0.0	 0.0	 0.0	 0.0	 0.0	 0.0	 0.0	 0.0	 0.0	 0.0	 0.0; % NG
	463	 0.0	 2.769	 8.4	 -8.4	 1.10266	 4.0	 1	 0	 0.0	 0.0	 0.0	 0.0	 0.0	 0.0	 0.0	 0.0	 0.0	 0.0	 0.0	 0.0; % SYNC
	482	 2.856	 6.526	 22.8	 -22.8	 1.06346	 1.7	 1	 11	 0.7	 0.0	 0.0	 0.0	 0.0	 0.0	 0.0	 0.0	 0.0	 0.0	 0.0	 0.0; % NG
	490	 1.5	 16.147	 17.0	 -17.0	 1.11239	 5.3	 1	 33	 1.5	 0.0	 0.0	 0.0	 0.0	 0.0	 0.0	 0.0	 0.0	 0.0	 0.0	 0.0; % PEL
	522	 0.0	 -1.046	 1.0	 -1.2	 1.10425	 1.9	 1	 0	 0.0	 0.0	 0.0	 0.0	 0.0	 0.0	 0.0	 0.0	 0.0	 0.0	 0.0	 0.0; % SYNC
	533	 0.25	 5.287	 8.0	 -8.0	 1.10961	 1.9	 1	 15	 0.25	 0.0	 0.0	 0.0	 0.0	 0.0	 0.0	 0.0	 0.0	 0.0	 0.0	 0.0; % PEL
	534	 17.945	 1.247	 28.0	 -28.0	 1.12	 53.9	 1	 56	 17.945	 0.0	 0.0	 0.0	 0.0	 0.0	 0.0	 0.0	 0.0	 0.0	 0.0	 0.0; % PEL
	534	 11.043	 0.77	 22.0	 -22.0	 1.12	 34.9	 1	 43	 11.043	 0.0	 0.0	 0.0	 0.0	 0.0	 0.0	 0.0	 0.0	 0.0	 0.0	 0.0; % PEL
	534	 11.043	 6.262	 63.0	 -63.0	 1.12	 34.9	 1	 125	 11.043	 0.0	 0.0	 0.0	 0.0	 0.0	 0.0	 0.0	 0.0	 0.0	 0.0	 0.0; % PEL
	534	 36.235	 33.153	 148.0	 -148.0	 1.12	 105.9	 1	 295	 36.2345	 0.0	 0.0	 0.0	 0.0	 0.0	 0.0	 0.0	 0.0	 0.0	 0.0	 0.0; % NG
	534	 154.0	 9.31	 77.0	 -77.0	 1.12	 105.9	 1	 154	 36.2345	 0.0	 0.0	 0.0	 0.0	 0.0	 0.0	 0.0	 0.0	 0.0	 0.0	 0.0; % NG
	535	 12.287	 1.025	 21.0	 -21.0	 1.10693	 36.5	 1	 42	 12.2865	 0.0	 0.0	 0.0	 0.0	 0.0	 0.0	 0.0	 0.0	 0.0	 0.0	 0.0; % PEL
	535	 11.902	 2.087	 30.0	 -30.0	 1.10693	 35.6	 1	 60	 11.9025	 0.0	 0.0	 0.0	 0.0	 0.0	 0.0	 0.0	 0.0	 0.0	 0.0	 0.0; % PEL
	535	 47.995	 21.324	 98.0	 -98.0	 1.10693	 126.2	 1	 195	 47.995	 0.0	 0.0	 0.0	 0.0	 0.0	 0.0	 0.0	 0.0	 0.0	 0.0	 0.0; % NG
	535	 40.316	 13.74	 78.0	 -78.0	 1.10693	 106.4	 1	 156	 40.3155	 0.0	 0.0	 0.0	 0.0	 0.0	 0.0	 0.0	 0.0	 0.0	 0.0	 0.0; % PEL
	549	 0.5	 8.4	 8.4	 -8.4	 1.10906	 1.7	 1	 10	 0.5	 0.0	 0.0	 0.0	 0.0	 0.0	 0.0	 0.0	 0.0	 0.0	 0.0	 0.0; % PEL
	557	 43.0	 1.203	 22.0	 -22.0	 1.11649	 34.4	 1	 43	 12.862	 0.0	 0.0	 0.0	 0.0	 0.0	 0.0	 0.0	 0.0	 0.0	 0.0	 0.0; % NG
	557	 10.592	 11.218	 68.0	 -68.0	 1.11649	 28.5	 1	 136	 10.592	 0.0	 0.0	 0.0	 0.0	 0.0	 0.0	 0.0	 0.0	 0.0	 0.0	 0.0; % NG
	557	 9.836	 8.501	 59.0	 -59.0	 1.11649	 26.5	 1	 117	 9.8355	 0.0	 0.0	 0.0	 0.0	 0.0	 0.0	 0.0	 0.0	 0.0	 0.0	 0.0; % NG
	557	 120.0	 8.785	 60.0	 -60.0	 1.11649	 30.4	 1	 120	 11.3485	 0.0	 0.0	 0.0	 0.0	 0.0	 0.0	 0.0	 0.0	 0.0	 0.0	 0.0; % NG
	557	 12.862	 14.278	 77.0	 -77.0	 1.11649	 34.4	 1	 153	 12.862	 0.0	 0.0	 0.0	 0.0	 0.0	 0.0	 0.0	 0.0	 0.0	 0.0	 0.0; % NG
	558	 15.516	 10.979	 22.0	 -22.0	 1.09974	 34.4	 1	 43	 15.516	 0.0	 0.0	 0.0	 0.0	 0.0	 0.0	 0.0	 0.0	 0.0	 0.0	 0.0; % PEL
	558	 15.516	 29.523	 43.0	 -43.0	 1.09974	 34.4	 1	 86	 15.516	 0.0	 0.0	 0.0	 0.0	 0.0	 0.0	 0.0	 0.0	 0.0	 0.0	 0.0; % PEL
	558	 11.409	 8.646	 19.0	 -19.0	 1.09974	 26.5	 1	 37	 11.4085	 0.0	 0.0	 0.0	 0.0	 0.0	 0.0	 0.0	 0.0	 0.0	 0.0	 0.0; % PEL
	558	 15.06	 10.187	 21.0	 -21.0	 1.09974	 34.4	 1	 41	 15.0595	 0.0	 0.0	 0.0	 0.0	 0.0	 0.0	 0.0	 0.0	 0.0	 0.0	 0.0; % NG
	581	 51.0	 3.508	 26.0	 -26.0	 1.11945	 5.3	 1	 51	 1.5	 0.0	 0.0	 0.0	 0.0	 0.0	 0.0	 0.0	 0.0	 0.0	 0.0	 0.0; % NG
	594	 1.035	 11.401	 18.0	 -18.0	 1.09614	 4.4	 1	 35	 1.035	 0.0	 0.0	 0.0	 0.0	 0.0	 0.0	 0.0	 0.0	 0.0	 0.0	 0.0; % PEL
	601	 30.0	 3.111	 15.0	 -15.0	 1.0976	 4.4	 1	 30	 2.025	 0.0	 0.0	 0.0	 0.0	 0.0	 0.0	 0.0	 0.0	 0.0	 0.0	 0.0; % NG
	622	 148.736	 6.694	 84.0	 -84.0	 1.10745	 114.0	 1	 167	 55.0	 0.0	 0.0	 0.0	 0.0	 0.0	 0.0	 0.0	 0.0	 0.0	 0.0	 0.0; % NG
	622	 0.0	 0.0	 30.0	 0.0	 1.10745	 65.3	 0	 0	 0.0	 0.0	 0.0	 0.0	 0.0	 0.0	 0.0	 0.0	 0.0	 0.0	 0.0	 0.0; % SYNC
	626	 1.125	 -2.012	 16.8	 -16.8	 1.10552	 2.4	 1	 8	 1.125	 0.0	 0.0	 0.0	 0.0	 0.0	 0.0	 0.0	 0.0	 0.0	 0.0	 0.0; % PEL
	630	 2.25	 6.71	 13.0	 -13.0	 1.12	 5.2	 1	 26	 2.25	 0.0	 0.0	 0.0	 0.0	 0.0	 0.0	 0.0	 0.0	 0.0	 0.0	 0.0; % NG
	631	 2.7	 11.999	 12.0	 -12.0	 1.11945	 6.0	 1	 24	 2.7	 0.0	 0.0	 0.0	 0.0	 0.0	 0.0	 0.0	 0.0	 0.0	 0.0	 0.0; % NG
	655	 0.405	 0.165	 20.0	 -20.0	 1.05768	 0.9	 1	 39	 0.405	 0.0	 0.0	 0.0	 0.0	 0.0	 0.0	 0.0	 0.0	 0.0	 0.0	 0.0; % NG
	660	 491.833	 105.03	 299.0	 -299.0	 1.10886	 255.0	 1	 597	 67.5	 0.0	 0.0	 0.0	 0.0	 0.0	 0.0	 0.0	 0.0	 0.0	 0.0	 0.0; % COW
	661	 67.5	 -88.981	 120.0	 -89.0	 1.10768	 255.0	 1	 178	 67.5	 0.0	 0.0	 0.0	 0.0	 0.0	 0.0	 0.0	 0.0	 0.0	 0.0	 0.0; % NG
	667	 0.945	 10.96	 11.0	 -11.0	 1.05417	 2.0	 1	 22	 0.945	 0.0	 0.0	 0.0	 0.0	 0.0	 0.0	 0.0	 0.0	 0.0	 0.0	 0.0; % PEL
	671	 14.0	 7.2	 7.2	 -7.2	 1.10215	 8.6	 1	 14	 3.825	 0.0	 0.0	 0.0	 0.0	 0.0	 0.0	 0.0	 0.0	 0.0	 0.0	 0.0; % COW
	673	 1.35	 -1.235	 18.0	 -18.0	 1.08155	 4.4	 1	 35	 1.35	 0.0	 0.0	 0.0	 0.0	 0.0	 0.0	 0.0	 0.0	 0.0	 0.0	 0.0; % PEL
	681	 227.0	 -0.451	 114.0	 -114.0	 1.11237	 192.4	 1	 227	 95.0	 0.0	 0.0	 0.0	 0.0	 0.0	 0.0	 0.0	 0.0	 0.0	 0.0	 0.0; % NG
	681	 12.499	 6.982	 30.0	 -16.0	 1.11237	 77.5	 1	 31	 12.499	 0.0	 0.0	 0.0	 0.0	 0.0	 0.0	 0.0	 0.0	 0.0	 0.0	 0.0; % PEL
	687	 30.0	 -5.608	 15.0	 -15.0	 1.10776	 10.1	 1	 30	 4.5	 0.0	 0.0	 0.0	 0.0	 0.0	 0.0	 0.0	 0.0	 0.0	 0.0	 0.0; % COW
	699	 2.7	 6.238	 30.0	 -30.0	 1.10683	 6.0	 1	 60	 2.7	 0.0	 0.0	 0.0	 0.0	 0.0	 0.0	 0.0	 0.0	 0.0	 0.0	 0.0; % PEL
	702	 0.45	 2.659	 9.0	 -9.0	 1.07842	 1.3	 1	 18	 0.45	 0.0	 0.0	 0.0	 0.0	 0.0	 0.0	 0.0	 0.0	 0.0	 0.0	 0.0; % PEL
	712	 50.0	 5.098	 25.0	 -25.0	 1.08526	 9.2	 1	 50	 4.5	 0.0	 0.0	 0.0	 0.0	 0.0	 0.0	 0.0	 0.0	 0.0	 0.0	 0.0; % NG
	718	 0.72	 6.399	 13.2	 -13.2	 1.05895	 1.5	 1	 13	 0.72	 0.0	 0.0	 0.0	 0.0	 0.0	 0.0	 0.0	 0.0	 0.0	 0.0	 0.0; % NG
	722	 1.125	 -1.743	 12.0	 -12.0	 1.09471	 2.4	 1	 23	 1.125	 0.0	 0.0	 0.0	 0.0	 0.0	 0.0	 0.0	 0.0	 0.0	 0.0	 0.0; % PEL
	731	 0.675	 -13.7	 19.0	 -19.0	 1.07737	 4.3	 1	 37	 0.675	 0.0	 0.0	 0.0	 0.0	 0.0	 0.0	 0.0	 0.0	 0.0	 0.0	 0.0; % PEL
	736	 65.0	 -1.62	 120.0	 -71.0	 1.08385	 255.0	 1	 141	 65.0	 0.0	 0.0	 0.0	 0.0	 0.0	 0.0	 0.0	 0.0	 0.0	 0.0	 0.0; % NG
	740	 0.9	 1.696	 8.0	 -8.0	 1.09252	 4.3	 1	 16	 0.9	 0.0	 0.0	 0.0	 0.0	 0.0	 0.0	 0.0	 0.0	 0.0	 0.0	 0.0; % PEL
	747	 55.0	 7.342	 28.0	 -28.0	 1.07554	 5.4	 1	 55	 2.34	 0.0	 0.0	 0.0	 0.0	 0.0	 0.0	 0.0	 0.0	 0.0	 0.0	 0.0; % NG
	759	 45.0	 4.465	 144.0	 -144.0	 1.07396	 105.2	 1	 287	 45.0	 0.0	 0.0	 0.0	 0.0	 0.0	 0.0	 0.0	 0.0	 0.0	 0.0	 0.0; % COW
	760	 0.0	 0.0	 0.0	 0.0	 1.09891	 1.3	 0	 0	 0.0	 0.0	 0.0	 0.0	 0.0	 0.0	 0.0	 0.0	 0.0	 0.0	 0.0	 0.0; % SYNC
	778	 16.0	 3.98	 30.0	 -8.0	 1.07063	 31.3	 1	 16	 4.5	 0.0	 0.0	 0.0	 0.0	 0.0	 0.0	 0.0	 0.0	 0.0	 0.0	 0.0; % NG
	780	 0.63	 4.558	 17.0	 -17.0	 1.10736	 1.4	 1	 34	 0.63	 0.0	 0.0	 0.0	 0.0	 0.0	 0.0	 0.0	 0.0	 0.0	 0.0	 0.0; % NG
	783	 3.0	 6.966	 8.4	 -8.4	 1.1072	 6.7	 1	 16	 3.0	 0.0	 0.0	 0.0	 0.0	 0.0	 0.0	 0.0	 0.0	 0.0	 0.0	 0.0; % NG
	788	 1.0	 3.999	 34.8	 -34.8	 1.05473	 95.9	 1	 11	 1.0	 0.0	 0.0	 0.0	 0.0	 0.0	 0.0	 0.0	 0.0	 0.0	 0.0	 0.0; % PEL
	792	 0.0	 0.0	 23.0	 0.0	 1.05672	 71.8	 0	 0	 0.0	 0.0	 0.0	 0.0	 0.0	 0.0	 0.0	 0.0	 0.0	 0.0	 0.0	 0.0; % SYNC
	792	 0.0	 0.0	 23.0	 0.0	 1.05672	 71.8	 0	 0	 0.0	 0.0	 0.0	 0.0	 0.0	 0.0	 0.0	 0.0	 0.0	 0.0	 0.0	 0.0; % SYNC
	792	 0.0	 0.0	 11.0	 0.0	 1.05672	 23.7	 0	 0	 0.0	 0.0	 0.0	 0.0	 0.0	 0.0	 0.0	 0.0	 0.0	 0.0	 0.0	 0.0; % SYNC
	792	 0.0	 0.0	 10.0	 0.0	 1.05672	 23.3	 0	 0	 0.0	 0.0	 0.0	 0.0	 0.0	 0.0	 0.0	 0.0	 0.0	 0.0	 0.0	 0.0; % SYNC
	803	 0.0	 6.737	 17.0	 -17.0	 1.08482	 55.9	 1	 34	 0.0	 0.0	 0.0	 0.0	 0.0	 0.0	 0.0	 0.0	 0.0	 0.0	 0.0	 0.0; % PEL
	804	 0.0	 12.401	 16.8	 -16.8	 1.08942	 120.4	 1	 13	 0.0	 0.0	 0.0	 0.0	 0.0	 0.0	 0.0	 0.0	 0.0	 0.0	 0.0	 0.0; % NG
	809	 0.0	 0.0	 0.0	 0.0	 1.10377	 3.3	 0	 0	 0.0	 0.0	 0.0	 0.0	 0.0	 0.0	 0.0	 0.0	 0.0	 0.0	 0.0	 0.0; % SYNC
	815	 1.35	 12.783	 13.0	 -13.0	 1.12	 3.1	 1	 26	 1.35	 0.0	 0.0	 0.0	 0.0	 0.0	 0.0	 0.0	 0.0	 0.0	 0.0	 0.0; % PEL
	834	 0.45	 -11.273	 19.2	 -19.2	 1.06838	 1.5	 1	 10	 0.45	 0.0	 0.0	 0.0	 0.0	 0.0	 0.0	 0.0	 0.0	 0.0	 0.0	 0.0; % PEL
	840	 89.0	 14.056	 45.0	 -45.0	 1.07927	 51.3	 1	 89	 12.5	 0.0	 0.0	 0.0	 0.0	 0.0	 0.0	 0.0	 0.0	 0.0	 0.0	 0.0; % COW
	840	 12.5	 21.451	 57.0	 -57.0	 1.07927	 51.3	 1	 113	 12.5	 0.0	 0.0	 0.0	 0.0	 0.0	 0.0	 0.0	 0.0	 0.0	 0.0	 0.0; % NG
	844	 0.95	 1.099	 19.0	 -19.0	 1.09305	 3.5	 1	 38	 0.95	 0.0	 0.0	 0.0	 0.0	 0.0	 0.0	 0.0	 0.0	 0.0	 0.0	 0.0; % PEL
	848	 1.506	 4.655	 21.0	 -21.0	 1.09252	 5.6	 1	 42	 1.5055	 0.0	 0.0	 0.0	 0.0	 0.0	 0.0	 0.0	 0.0	 0.0	 0.0	 0.0; % NG
	854	 3.5	 7.525	 47.0	 -47.0	 1.1035	 14.5	 1	 93	 3.5	 0.0	 0.0	 0.0	 0.0	 0.0	 0.0	 0.0	 0.0	 0.0	 0.0	 0.0; % NG
	873	 34.0	 8.243	 131.0	 -131.0	 1.11688	 87.7	 1	 261	 34.0	 0.0	 0.0	 0.0	 0.0	 0.0	 0.0	 0.0	 0.0	 0.0	 0.0	 0.0; % NG
	876	 0.0	 0.0	 0.0	 0.0	 1.09513	 1.9	 0	 0	 0.0	 0.0	 0.0	 0.0	 0.0	 0.0	 0.0	 0.0	 0.0	 0.0	 0.0	 0.0; % SYNC
	896	 0.0	 0.0	 45.0	 -10.0	 1.09722	 65.8	 0	 0	 0.0	 0.0	 0.0	 0.0	 0.0	 0.0	 0.0	 0.0	 0.0	 0.0	 0.0	 0.0; % SYNC
	896	 0.0	 0.0	 45.0	 -10.0	 1.09722	 71.1	 0	 0	 0.0	 0.0	 0.0	 0.0	 0.0	 0.0	 0.0	 0.0	 0.0	 0.0	 0.0	 0.0; % SYNC
	896	 20.0	 45.0	 45.0	 -44.0	 1.09722	 71.1	 1	 87	 20.0	 0.0	 0.0	 0.0	 0.0	 0.0	 0.0	 0.0	 0.0	 0.0	 0.0	 0.0; % NG
	902	 0.056	 -3.822	 17.0	 -17.0	 1.054	 0.3	 1	 33	 0.0555	 0.0	 0.0	 0.0	 0.0	 0.0	 0.0	 0.0	 0.0	 0.0	 0.0	 0.0; % PEL
...
];

%% generator cost data
%	2	startup	shutdown	n	c(n-1)	...	c0
mpc.gencost = [
	2	 0.0	 0.0	 3	   0.000000	   0.798278	   0.000000; % NG
	2	 0.0	 0.0	 3	   0.000000	   0.960413	   0.000000; % NG
	2	 0.0	 0.0	 3	   0.000000	   1.019383	   0.000000; % COW
	2	 0.0	 0.0	 3	   0.000000	   1.234025	   0.000000; % NG
	2	 0.0	 0.0	 3	   0.000000	   0.764633	   0.000000; % NG
	2	 0.0	 0.0	 3	   0.000000	   0.733763	   0.000000; % NG
	2	 0.0	 0.0	 3	   0.000000	   1.050375	   0.000000; % NG
	2	 0.0	 0.0	 3	   0.000000	   0.225330	   0.000000; % NUC
	2	 0.0	 0.0	 3	   0.000000	   0.667663	   0.000000; % COW
	2	 0.0	 0.0	 3	   0.000000	   0.835800	   0.000000; % NG
	2	 0.0	 0.0	 3	   0.000000	   0.974233	   0.000000; % NG
	2	 0.0	 0.0	 3	   0.000000	   1.136992	   0.000000; % NG
	2	 0.0	 0.0	 3	   0.000000	   1.066202	   0.000000; % NG
	2	 0.0	 0.0	 3	   0.000000	   1.004418	   0.000000; % COW
	2	 0.0	 0.0	 3	   0.000000	   0.902539	   0.000000; % NG
	2	 0.0	 0.0	 3	   0.000000	   0.963075	   0.000000; % NG
	2	 0.0	 0.0	 3	   0.000000	   1.097849	   0.000000; % COW
	2	 0.0	 0.0	 3	   0.000000	   0.999793	   0.000000; % NG
	2	 0.0	 0.0	 3	   0.000000	   1.131437	   0.000000; % NG
	2	 0.0	 0.0	 3	   0.000000	   0.739413	   0.000000; % COW
	2	 0.0	 0.0	 3	   0.000000	   1.104120	   0.000000; % NG
	2	 0.0	 0.0	 3	   0.000000	   0.769867	   0.000000; % COW
	2	 0.0	 0.0	 3	   0.000000	   1.301970	   0.000000; % NG
	2	 0.0	 0.0	 3	   0.000000	   0.329298	   0.000000; % COW
	2	 0.0	 0.0	 3	   0.000000	   0.628064	   0.000000; % COW
	2	 0.0	 0.0	 3	   0.000000	   0.967503	   0.000000; % NG
	2	 0.0	 0.0	 3	   0.000000	   0.907466	   0.000000; % NG
	2	 0.0	 0.0	 3	   0.000000	   1.316719	   0.000000; % NG
	2	 0.0	 0.0	 3	   0.000000	   1.053029	   0.000000; % NG
	2	 0.0	 0.0	 3	   0.000000	   1.008927	   0.000000; % NG
	2	 0.0	 0.0	 3	   0.000000	   1.162835	   0.000000; % NG
	2	 0.0	 0.0	 3	   0.000000	   0.788157	   0.000000; % NG
	2	 0.0	 0.0	 3	   0.000000	   1.139420	   0.000000; % NG
	2	 0.0	 0.0	 3	   0.000000	   0.700103	   0.000000; % NG
	2	 0.0	 0.0	 3	   0.000000	   1.010559	   0.000000; % NG
	2	 0.0	 0.0	 3	   0.000000	   1.320286	   0.000000; % NG
	2	 0.0	 0.0	 3	   0.000000	   0.942387	   0.000000; % NG
	2	 0.0	 0.0	 3	   0.000000	   1.242011	   0.000000; % NG
	2	 0.0	 0.0	 3	   0.000000	   0.667807	   0.000000; % COW
	2	 0.0	 0.0	 3	   0.000000	   0.619341	   0.000000; % COW
	2	 0.0	 0.0	 3	   0.000000	   0.706398	   0.000000; % NG
	2	 0.0	 0.0	 3	   0.000000	   0.770994	   0.000000; % COW
	2	 0.0	 0.0	 3	   0.000000	   1.079973	   0.000000; % NG
	2	 0.0	 0.0	 3	   0.000000	   0.987003	   0.000000; % NG
	2	 0.0	 0.0	 3	   0.000000	   1.363946	   0.000000; % NG
	2	 0.0	 0.0	 3	   0.000000	   0.828134	   0.000000; % COW
	2	 0.0	 0.0	 3	   0.000000	   1.209647	   0.000000; % NG
	2	 0.0	 0.0	 3	   0.000000	   0.893540	   0.000000; % NG
	2	 0.0	 0.0	 3	   0.000000	   0.000000	   0.000000; % SYNC
	2	 0.0	 0.0	 3	   0.000000	   0.000000	   0.000000; % SYNC
	2	 0.0	 0.0	 3	   0.000000	   0.000000	   0.000000; % SYNC
	2	 0.0	 0.0	 3	   0.000000	   0.000000	   0.000000; % SYNC
	2	 0.0	 0.0	 3	   0.000000	   1.357283	   0.000000; % NG
	2	 0.0	 0.0	 3	   0.000000	   0.598385	   0.000000; % NG
	2	 0.0	 0.0	 3	   0.000000	   0.913910	   0.000000; % NG
	2	 0.0	 0.0	 3	   0.000000	   1.388367	   0.000000; % NG
	2	 0.0	 0.0	 3	   0.000000	   1.335964	   0.000000; % NG
	2	 0.0	 0.0	 3	   0.000000	   1.421359	   0.000000; % NG
	2	 0.0	 0.0	 3	   0.000000	   1.269596	   0.000000; % NG
	2	 0.0	 0.0	 3	   0.000000	   0.944398	   0.000000; % NG
	2	 0.0	 0.0	 3	   0.000000	   0.887592	   0.000000; % NG
	2	 0.0	 0.0	 3	   0.000000	   1.106378	   0.000000; % NG
	2	 0.0	 0.0	 3	   0.000000	   1.076109	   0.000000; % NG
	2	 0.0	 0.0	 3	   0.000000	   1.116136	   0.000000; % NG
	2	 0.0	 0.0	 3	   0.000000	   0.984289	   0.000000; % NG
	2	 0.0	 0.0	 3	   0.000000	   1.066730	   0.000000; % NG
	2	 0.0	 0.0	 3	   0.000000	   0.765111	   0.000000; % COW
	2	 0.0	 0.0	 3	   0.000000	   1.031097	   0.000000; % NG
	2	 0.0	 0.0	 3	   0.000000	   0.917185	   0.000000; % NG
	2	 0.0	 0.0	 3	   0.000000	   0.852036	   0.000000; % NG
	2	 0.0	 0.0	 3	   0.000000	   1.076662	   0.000000; % NG
	2	 0.0	 0.0	 3	   0.000000	   1.144044	   0.000000; % NG
	2	 0.0	 0.0	 3	   0.000000	   0.941601	   0.000000; % NG
	2	 0.0	 0.0	 3	   0.000000	   1.006162	   0.000000; % COW
	2	 0.0	 0.0	 3	   0.000000	   1.371921	   0.000000; % NG
	2	 0.0	 0.0	 3	   0.000000	   0.906498	   0.000000; % NG
	2	 0.0	 0.0	 3	   0.000000	   0.785662	   0.000000; % COW
	2	 0.0	 0.0	 3	   0.000000	   1.343523	   0.000000; % NG
	2	 0.0	 0.0	 3	   0.000000	   0.000000	   0.000000; % SYNC
	2	 0.0	 0.0	 3	   0.000000	   0.000000	   0.000000; % SYNC
	2	 0.0	 0.0	 3	   0.000000	   0.000000	   0.000000; % SYNC
	2	 0.0	 0.0	 3	   0.000000	   0.000000	   0.000000; % SYNC
	2	 0.0	 0.0	 3	   0.000000	   1.160673	   0.000000; % NG
	2	 0.0	 0.0	 3	   0.000000	   1.211058	   0.000000; % NG
	2	 0.0	 0.0	 3	   0.000000	   0.961571	   0.000000; % NG
	2	 0.0	 0.0	 3	   0.000000	   0.649628	   0.000000; % COW
	2	 0.0	 0.0	 3	   0.000000	   1.001247	   0.000000; % NG
	2	 0.0	 0.0	 3	   0.000000	   0.779019	   0.000000; % NG
	2	 0.0	 0.0	 3	   0.000000	   1.112595	   0.000000; % COW
	2	 0.0	 0.0	 3	   0.000000	   0.956130	   0.000000; % COW
	2	 0.0	 0.0	 3	   0.000000	   6.977489	   0.000000; % PEL
	2	 0.0	 0.0	 3	   0.000000	   6.645922	   0.000000; % PEL
	2	 0.0	 0.0	 3	   0.000000	   0.625400	   0.000000; % NG
	2	 0.0	 0.0	 3	   0.000000	   1.380444	   0.000000; % NG
	2	 0.0	 0.0	 3	   0.000000	   1.232178	   0.000000; % NG
	2	 0.0	 0.0	 3	   0.000000	   0.845031	   0.000000; % NG
	2	 0.0	 0.0	 3	   0.000000	   0.436327	   0.000000; % COW
	2	 0.0	 0.0	 3	   0.000000	   1.069523	   0.000000; % NG
	2	 0.0	 0.0	 3	   0.000000	   6.632766	   0.000000; % PEL
	2	 0.0	 0.0	 3	   0.000000	   1.095973	   0.000000; % NG
	2	 0.0	 0.0	 3	   0.000000	   1.046718	   0.000000; % NG
	2	 0.0	 0.0	 3	   0.000000	   6.727872	   0.000000; % PEL
	2	 0.0	 0.0	 3	   0.000000	   0.995345	   0.000000; % NG
	2	 0.0	 0.0	 3	   0.000000	   0.978668	   0.000000; % NG
	2	 0.0	 0.0	 3	   0.000000	   6.572543	   0.000000; % PEL
	2	 0.0	 0.0	 3	   0.000000	   7.377664	   0.000000; % PEL
	2	 0.0	 0.0	 3	   0.000000	   1.157359	   0.000000; % NG
	2	 0.0	 0.0	 3	   0.000000	   1.084998	   0.000000; % NG
	2	 0.0	 0.0	 3	   0.000000	   0.000000	   0.000000; % SYNC
	2	 0.0	 0.0	 3	   0.000000	   7.292704	   0.000000; % PEL
	2	 0.0	 0.0	 3	   0.000000	   1.153363	   0.000000; % NG
	2	 0.0	 0.0	 3	   0.000000	   1.070296	   0.000000; % NG
	2	 0.0	 0.0	 3	   0.000000	   6.513798	   0.000000; % PEL
	2	 0.0	 0.0	 3	   0.000000	   0.917449	   0.000000; % NG
	2	 0.0	 0.0	 3	   0.000000	   1.085147	   0.000000; % COW
	2	 0.0	 0.0	 3	   0.000000	   1.032750	   0.000000; % NG
	2	 0.0	 0.0	 3	   0.000000	   6.726643	   0.000000; % PEL
	2	 0.0	 0.0	 3	   0.000000	   6.651936	   0.000000; % PEL
	2	 0.0	 0.0	 3	   0.000000	   1.710550	   0.000000; % NG
	2	 0.0	 0.0	 3	   0.000000	   6.958045	   0.000000; % PEL
	2	 0.0	 0.0	 3	   0.000000	   1.195559	   0.000000; % NG
	2	 0.0	 0.0	 3	   0.000000	   0.813727	   0.000000; % NG
	2	 0.0	 0.0	 3	   0.000000	   0.909922	   0.000000; % NG
	2	 0.0	 0.0	 3	   0.000000	   1.398558	   0.000000; % NG
	2	 0.0	 0.0	 3	   0.000000	   0.000000	   0.000000; % SYNC
	2	 0.0	 0.0	 3	   0.000000	   0.980291	   0.000000; % NG
	2	 0.0	 0.0	 3	   0.000000	   6.177319	   0.000000; % PEL
	2	 0.0	 0.0	 3	   0.000000	   0.000000	   0.000000; % SYNC
	2	 0.0	 0.0	 3	   0.000000	   6.562125	   0.000000; % PEL
	2	 0.0	 0.0	 3	   0.000000	   7.017401	   0.000000; % PEL
	2	 0.0	 0.0	 3	   0.000000	   6.402456	   0.000000; % PEL
	2	 0.0	 0.0	 3	   0.000000	   7.199262	   0.000000; % PEL
	2	 0.0	 0.0	 3	   0.000000	   1.096768	   0.000000; % NG
	2	 0.0	 0.0	 3	   0.000000	   0.944261	   0.000000; % NG
	2	 0.0	 0.0	 3	   0.000000	   6.576761	   0.000000; % PEL
	2	 0.0	 0.0	 3	   0.000000	   7.304505	   0.000000; % PEL
	2	 0.0	 0.0	 3	   0.000000	   1.020732	   0.000000; % NG
	2	 0.0	 0.0	 3	   0.000000	   7.264046	   0.000000; % PEL
	2	 0.0	 0.0	 3	   0.000000	   6.229973	   0.000000; % PEL
	2	 0.0	 0.0	 3	   0.000000	   0.932808	   0.000000; % NG
	2	 0.0	 0.0	 3	   0.000000	   1.485352	   0.000000; % NG
	2	 0.0	 0.0	 3	   0.000000	   1.138152	   0.000000; % NG
	2	 0.0	 0.0	 3	   0.000000	   0.639510	   0.000000; % NG
	2	 0.0	 0.0	 3	   0.000000	   1.082128	   0.000000; % NG
	2	 0.0	 0.0	 3	   0.000000	   6.822862	   0.000000; % PEL
	2	 0.0	 0.0	 3	   0.000000	   6.460375	   0.000000; % PEL
	2	 0.0	 0.0	 3	   0.000000	   6.331135	   0.000000; % PEL
	2	 0.0	 0.0	 3	   0.000000	   1.044641	   0.000000; % NG
	2	 0.0	 0.0	 3	   0.000000	   0.898562	   0.000000; % NG
	2	 0.0	 0.0	 3	   0.000000	   7.261219	   0.000000; % PEL
	2	 0.0	 0.0	 3	   0.000000	   0.824831	   0.000000; % NG
	2	 0.0	 0.0	 3	   0.000000	   0.943230	   0.000000; % NG
	2	 0.0	 0.0	 3	   0.000000	   0.000000	   0.000000; % SYNC
	2	 0.0	 0.0	 3	   0.000000	   7.578431	   0.000000; % PEL
	2	 0.0	 0.0	 3	   0.000000	   1.320389	   0.000000; % NG
	2	 0.0	 0.0	 3	   0.000000	   1.298136	   0.000000; % NG
	2	 0.0	 0.0	 3	   0.000000	   1.108250	   0.000000; % NG
	2	 0.0	 0.0	 3	   0.000000	   0.904335	   0.000000; % COW
	2	 0.0	 0.0	 3	   0.000000	   0.930370	   0.000000; % NG
	2	 0.0	 0.0	 3	   0.000000	   6.450786	   0.000000; % PEL
	2	 0.0	 0.0	 3	   0.000000	   0.111291	   0.000000; % COW
	2	 0.0	 0.0	 3	   0.000000	   6.265868	   0.000000; % PEL
	2	 0.0	 0.0	 3	   0.000000	   0.776781	   0.000000; % NG
	2	 0.0	 0.0	 3	   0.000000	   6.817692	   0.000000; % PEL
	2	 0.0	 0.0	 3	   0.000000	   0.741136	   0.000000; % COW
	2	 0.0	 0.0	 3	   0.000000	   6.351311	   0.000000; % PEL
	2	 0.0	 0.0	 3	   0.000000	   6.859126	   0.000000; % PEL
	2	 0.0	 0.0	 3	   0.000000	   0.849292	   0.000000; % NG
	2	 0.0	 0.0	 3	   0.000000	   1.066214	   0.000000; % NG
	2	 0.0	 0.0	 3	   0.000000	   7.047162	   0.000000; % PEL
	2	 0.0	 0.0	 3	   0.000000	   6.966231	   0.000000; % PEL
	2	 0.0	 0.0	 3	   0.000000	   1.102916	   0.000000; % NG
	2	 0.0	 0.0	 3	   0.000000	   6.734740	   0.000000; % PEL
	2	 0.0	 0.0	 3	   0.000000	   0.890206	   0.000000; % NG
	2	 0.0	 0.0	 3	   0.000000	   1.158915	   0.000000; % COW
	2	 0.0	 0.0	 3	   0.000000	   0.000000	   0.000000; % SYNC
	2	 0.0	 0.0	 3	   0.000000	   0.911189	   0.000000; % NG
	2	 0.0	 0.0	 3	   0.000000	   1.218527	   0.000000; % NG
	2	 0.0	 0.0	 3	   0.000000	   1.649736	   0.000000; % NG
	2	 0.0	 0.0	 3	   0.000000	   6.210010	   0.000000; % PEL
	2	 0.0	 0.0	 3	   0.000000	   0.000000	   0.000000; % SYNC
	2	 0.0	 0.0	 3	   0.000000	   0.000000	   0.000000; % SYNC
	2	 0.0	 0.0	 3	   0.000000	   0.000000	   0.000000; % SYNC
	2	 0.0	 0.0	 3	   0.000000	   0.000000	   0.000000; % SYNC
	2	 0.0	 0.0	 3	   0.000000	   6.300477	   0.000000; % PEL
	2	 0.0	 0.0	 3	   0.000000	   1.374052	   0.000000; % NG
	2	 0.0	 0.0	 3	   0.000000	   0.000000	   0.000000; % SYNC
	2	 0.0	 0.0	 3	   0.000000	   7.256661	   0.000000; % PEL
	2	 0.0	 0.0	 3	   0.000000	   7.180822	   0.000000; % PEL
	2	 0.0	 0.0	 3	   0.000000	   0.880512	   0.000000; % COW
	2	 0.0	 0.0	 3	   0.000000	   1.107064	   0.000000; % NG
	2	 0.0	 0.0	 3	   0.000000	   6.796436	   0.000000; % PEL
	2	 0.0	 0.0	 3	   0.000000	   1.170398	   0.000000; % NG
	2	 0.0	 0.0	 3	   0.000000	   1.394579	   0.000000; % NG
	2	 0.0	 0.0	 3	   0.000000	   1.008748	   0.000000; % NG
	2	 0.0	 0.0	 3	   0.000000	   0.000000	   0.000000; % SYNC
	2	 0.0	 0.0	 3	   0.000000	   0.000000	   0.000000; % SYNC
	2	 0.0	 0.0	 3	   0.000000	   0.000000	   0.000000; % SYNC
	2	 0.0	 0.0	 3	   0.000000	   1.094490	   0.000000; % NG
	2	 0.0	 0.0	 3	   0.000000	   6.990299	   0.000000; % PEL
...
];

%% branch data
%	fbus	tbus	r	x	b	rateA	rateB	rateC	ratio	angle	status	angmin	angmax
mpc.branch = [
	7	 8	 0.00064	 0.0305	 0.0	 400.0	 400.0	 400.0	 1.0435	 -0.6	 1	 -30.0	 30.0;
	26	 28	 0.00036	 0.02519	 0.0	 500.0	 500.0	 500.0	 1.0627	 0.0	 1	 -30.0	 30.0;
	27	 29	 0.00036	 0.02519	 0.0	 500.0	 500.0	 500.0	 1.0623	 0.0	 1	 -30.0	 30.0;
	40	 42	 0.00034	 0.02097	 0.0	 500.0	 500.0	 500.0	 1.1011	 0.0	 1	 -30.0	 30.0;
	43	 46	 0.00034	 0.02097	 0.0	 500.0	 500.0	 500.0	 1.0733	 0.0	 1	 -30.0	 30.0;
	55	 57	 0.00081	 0.03	 0.0	 400.0	 400.0	 400.0	 1.0547	 0.0	 1	 -30.0	 30.0;
	90	 92	 0.00075	 0.02444	 -0.00832	 330.0	 330.0	 330.0	 1.0508	 0.0	 1	 -30.0	 30.0;
	91	 93	 0.00075	 0.02469	 -0.008	 330.0	 330.0	 330.0	 1.0499	 0.0	 1	 -30.0	 30.0;
	125	 128	 0.0005	 0.02875	 -0.016	 400.0	 400.0	 400.0	 1.0677	 0.0	 1	 -30.0	 30.0;
	149	 150	 0.00064	 0.0305	 0.0	 400.0	 400.0	 400.0	 1.0568	 0.0	 1	 -30.0	 30.0;
	155	 158	 0.000232	 0.023	 0.0	 500.0	 500.0	 500.0	 1.049	 0.0	 1	 -30.0	 30.0;
	156	 159	 0.000232	 0.023	 0.0	 500.0	 500.0	 500.0	 1.0479	 0.0	 1	 -30.0	 30.0;
	170	 172	 0.00035	 0.02375	 0.0	 500.0	 500.0	 500.0	 1.195	 0.0	 1	 -30.0	 30.0;
	183	 184	 0.00059	 0.03093	 0.0	 400.0	 400.0	 400.0	 1.0847	 0.0	 1	 -30.0	 30.0;
	190	 192	 0.0004	 0.03	 0.0	 500.0	 500.0	 500.0	 1.0485	 0.0	 1	 -30.0	 30.0;
	2735	 158	 0.00031	 0.00338	 0.0992	 1386.0	 1386.0	 1386.0	 0.0	 0.0	 1	 -30.0	 30.0;
	2735	 159	 0.00031	 0.00338	 0.0992	 1386.0	 1386.0	 1386.0	 0.0	 0.0	 1	 -30.0	 30.0;
	2736	 68	 0.014341	 0.083531	 0.126034	 415.0	 415.0	 415.0	 0.0	 0.0	 1	 -30.0	 30.0;
	2734	 76	 0.01219	 0.070659	 0.117418	 412.0	 412.0	 412.0	 0.0	 0.0	 1	 -30.0	 30.0;
	2734	 105	 0.011781	 0.07087	 0.116838	 412.0	 412.0	 412.0	 0.0	 0.0	 1	 -30.0	 30.0;
	2739	 200	 1e-05	 9e-05	 0.0	 924.0	 924.0	 924.0	 0.0	 0.0	 1	 -30.0	 30.0;
	128	 2732	 0.0015	 0.01469	 0.40384	 1386.0	 1386.0	 1386.0	 0.0	 0.0	 0	 -30.0	 30.0;
	127	 2733	 0.001419	 0.014675	 0.4896	 1386.0	 1386.0	 1386.0	 0.0	 0.0	 1	 -30.0	 30.0;
	2737	 148	 0.001651	 0.015909	 0.046948	 373.0	 373.0	 373.0	 0.0	 0.0	 1	 -30.0	 30.0;
	2737	 149	 0.001651	 0.015909	 0.046948	 373.0	 373.0	 373.0	 0.0	 0.0	 1	 -30.0	 30.0;
	2738	 48	 0.00188	 0.02287	 0.6432	 831.0	 831.0	 831.0	 0.0	 0.0	 1	 -30.0	 30.0;
	2738	 49	 0.00188	 0.02287	 0.6432	 831.0	 831.0	 831.0	 0.0	 0.0	 1	 -30.0	 30.0;
	82	 2732	 0.003519	 0.039313	 1.0336	 1621.0	 1621.0	 1621.0	 0.0	 0.0	 1	 -30.0	 30.0;
	43	 23	 0.01345	 0.081141	 0.141134	 339.0	 339.0	 339.0	 0.0	 0.0	 1	 -30.0	 30.0;
	26	 90	 0.009091	 0.062401	 0.111417	 457.0	 457.0	 457.0	 0.0	 0.0	 1	 -30.0	 30.0;
	27	 91	 0.00868	 0.06405	 0.096994	 457.0	 457.0	 457.0	 0.0	 0.0	 1	 -30.0	 30.0;
	146	 30	 0.016961	 0.123659	 0.196988	 373.0	 373.0	 373.0	 0.0	 0.0	 1	 -30.0	 30.0;
	135	 34	 0.00512	 0.02618	 0.029621	 335.0	 335.0	 335.0	 0.0	 0.0	 1	 -30.0	 30.0;
	134	 20	 0.01068	 0.061961	 0.094961	 415.0	 415.0	 415.0	 0.0	 0.0	 1	 -30.0	 30.0;
	165	 21	 0.014651	 0.105891	 0.170852	 373.0	 373.0	 373.0	 0.0	 0.0	 1	 -30.0	 30.0;
	41	 109	 0.01488	 0.08161	 0.114805	 347.0	 347.0	 347.0	 0.0	 0.0	 1	 -30.0	 30.0;
	40	 91	 0.011159	 0.07231	 0.103673	 362.0	 362.0	 362.0	 0.0	 0.0	 1	 -30.0	 30.0;
	179	 83	 0.008616	 0.077645	 0.122239	 373.0	 373.0	 373.0	 0.0	 0.0	 1	 -30.0	 30.0;
	203	 166	 0.01176	 0.068289	 0.102802	 362.0	 362.0	 362.0	 0.0	 0.0	 1	 -30.0	 30.0;
	194	 166	 0.016818	 0.089091	 0.129935	 400.0	 400.0	 400.0	 0.0	 0.0	 1	 -30.0	 30.0;
	193	 165	 0.013843	 0.087025	 0.134842	 427.0	 427.0	 427.0	 0.0	 0.0	 1	 -30.0	 30.0;
	207	 168	 0.01676	 0.097169	 0.148685	 274.0	 274.0	 274.0	 0.0	 0.0	 1	 -30.0	 30.0;
	43	 12	 0.01269	 0.074979	 0.130196	 377.0	 377.0	 377.0	 0.0	 0.0	 1	 -30.0	 30.0;
	198	 18	 0.014091	 0.10413	 0.15972	 373.0	 373.0	 373.0	 0.0	 0.0	 1	 -30.0	 30.0;
	100	 55	 0.003719	 0.0438	 0.100962	 457.0	 457.0	 457.0	 0.0	 0.0	 1	 -30.0	 30.0;
	163	 82	 0.00194	 0.02056	 0.51584	 1316.0	 1316.0	 1316.0	 0.0	 0.0	 1	 -30.0	 30.0;
	45	 9	 0.0015	 0.01506	 0.4032	 1386.0	 1386.0	 1386.0	 0.0	 0.0	 1	 -30.0	 30.0;
	185	 151	 0.00294	 0.03463	 0.9216	 693.0	 693.0	 693.0	 0.0	 0.0	 1	 -30.0	 30.0;
	121	 57	 0.00169	 0.01994	 0.50624	 831.0	 831.0	 831.0	 0.0	 0.0	 1	 -30.0	 30.0;
	29	 93	 0.00137	 0.01625	 0.41184	 1386.0	 1386.0	 1386.0	 0.0	 0.0	 1	 -30.0	 30.0;
	28	 123	 0.00231	 0.02769	 0.70144	 1386.0	 1386.0	 1386.0	 0.0	 0.0	 1	 -30.0	 30.0;
	25	 192	 0.00207	 0.02474	 0.664	 831.0	 831.0	 831.0	 0.0	 0.0	 1	 -30.0	 30.0;
...